EDS00495858
     RDKit          3D

 63 67  0  0  0  0  0  0  0  0999 V2000
   -3.8224   -1.7615   -2.1373 O   0  0  0  0  0  0  0  0  0  0  0  0
   -3.0528   -0.9189   -1.6920 C   0  0  0  0  0  0  0  0  0  0  0  0
   -3.4432    0.2702   -1.1163 N   0  0  0  0  0  0  0  0  0  0  0  0
   -4.8252    0.6069   -0.8565 C   0  0  0  0  0  0  0  0  0  0  0  0
   -5.3223    0.1717    0.5104 C   0  0  0  0  0  0  0  0  0  0  0  0
   -4.3935    0.0409    1.5679 C   0  0  0  0  0  0  0  0  0  0  0  0
   -4.7679   -0.4484    2.8201 C   0  0  0  0  0  0  0  0  0  0  0  0
   -6.0848   -0.8163    3.0527 C   0  0  0  0  0  0  0  0  0  0  0  0
   -7.0333   -0.6685    2.0419 C   0  0  0  0  0  0  0  0  0  0  0  0
   -6.6753   -0.1489    0.7804 C   0  0  0  0  0  0  0  0  0  0  0  0
   -7.7299    0.0489   -0.1637 N   0  0  0  0  0  0  0  0  0  0  0  0
   -8.8788   -0.7172   -0.2652 C   0  0  0  0  0  0  0  0  0  0  0  0
   -9.6762   -0.2144   -1.2697 C   0  0  0  0  0  0  0  0  0  0  0  0
   -9.0247    0.9226   -1.7864 C   0  0  0  0  0  0  0  0  0  0  0  0
   -7.8498    1.0745   -1.0821 C   0  0  0  0  0  0  0  0  0  0  0  0
   -1.5671   -1.1173   -1.7293 C   0  0  0  0  0  0  0  0  0  0  0  0
   -1.0356   -2.2496   -2.3272 C   0  0  0  0  0  0  0  0  0  0  0  0
    0.3462   -2.3993   -2.3304 C   0  0  0  0  0  0  0  0  0  0  0  0
    1.1456   -1.4233   -1.7293 C   0  0  0  0  0  0  0  0  0  0  0  0
    0.5316   -0.3024   -1.1615 C   0  0  0  0  0  0  0  0  0  0  0  0
   -0.8153   -0.1374   -1.1485 N   0  0  0  0  0  0  0  0  0  0  0  0
    1.3628    0.8082   -0.5539 C   0  0  0  0  0  0  0  0  0  0  0  0
    2.7789    0.5063   -0.3183 N   0  0  0  0  0  0  0  0  0  0  0  0
    3.5533    1.5501    0.1804 C   0  0  0  0  0  0  0  0  0  0  0  0
    3.1665    2.7153    0.2211 O   0  0  0  0  0  0  0  0  0  0  0  0
    4.9023    1.2707    0.6943 C   0  0  0  0  0  0  0  0  0  0  0  0
    5.1213    0.4108    1.7700 C   0  0  0  0  0  0  0  0  0  0  0  0
    6.4256    0.2152    2.2183 C   0  0  0  0  0  0  0  0  0  0  0  0
    7.4536    0.8935    1.5788 C   0  0  0  0  0  0  0  0  0  0  0  0
    8.7267    0.6657    2.0529 O   0  0  0  0  0  0  0  0  0  0  0  0
    9.7632    1.2613    1.2575 C   0  0  0  0  0  0  0  0  0  0  0  0
   10.1588    0.4148    0.0558 C   0  0  0  0  0  0  0  0  0  0  0  0
   11.2139    0.9764   -0.5853 F   0  0  0  0  0  0  0  0  0  0  0  0
    9.1742    0.2624   -0.8527 F   0  0  0  0  0  0  0  0  0  0  0  0
   10.5495   -0.8241    0.4433 F   0  0  0  0  0  0  0  0  0  0  0  0
    7.2658    1.7545    0.5575 N   0  0  0  0  0  0  0  0  0  0  0  0
    5.9870    1.9364    0.1435 C   0  0  0  0  0  0  0  0  0  0  0  0
    3.2200   -0.8831   -0.4621 C   0  0  0  0  0  0  0  0  0  0  0  0
    2.6424   -1.5385   -1.7160 C   0  0  0  0  0  0  0  0  0  0  0  0
   -2.6993    0.8583   -0.7540 H   0  0  0  0  0  0  0  0  0  0  0  0
   -5.4201    0.1420   -1.6483 H   0  0  0  0  0  0  0  0  0  0  0  0
   -4.8961    1.6965   -0.9335 H   0  0  0  0  0  0  0  0  0  0  0  0
   -3.3463    0.2967    1.4193 H   0  0  0  0  0  0  0  0  0  0  0  0
   -4.0256   -0.5517    3.6072 H   0  0  0  0  0  0  0  0  0  0  0  0
   -6.3807   -1.2017    4.0248 H   0  0  0  0  0  0  0  0  0  0  0  0
   -8.0649   -0.9185    2.2796 H   0  0  0  0  0  0  0  0  0  0  0  0
   -9.0189   -1.5953    0.3506 H   0  0  0  0  0  0  0  0  0  0  0  0
  -10.6257   -0.6251   -1.5883 H   0  0  0  0  0  0  0  0  0  0  0  0
   -9.3798    1.5783   -2.5713 H   0  0  0  0  0  0  0  0  0  0  0  0
   -7.1199    1.8671   -1.1406 H   0  0  0  0  0  0  0  0  0  0  0  0
   -1.6821   -2.9952   -2.7792 H   0  0  0  0  0  0  0  0  0  0  0  0
    0.7902   -3.2752   -2.7972 H   0  0  0  0  0  0  0  0  0  0  0  0
    1.3055    1.6852   -1.2101 H   0  0  0  0  0  0  0  0  0  0  0  0
    0.9259    1.0853    0.4138 H   0  0  0  0  0  0  0  0  0  0  0  0
    4.2927   -0.0884    2.2630 H   0  0  0  0  0  0  0  0  0  0  0  0
    6.6379   -0.4471    3.0506 H   0  0  0  0  0  0  0  0  0  0  0  0
    9.5311    2.2944    0.9715 H   0  0  0  0  0  0  0  0  0  0  0  0
   10.6366    1.3334    1.9166 H   0  0  0  0  0  0  0  0  0  0  0  0
    5.8580    2.6489   -0.6675 H   0  0  0  0  0  0  0  0  0  0  0  0
    4.3112   -0.9366   -0.5109 H   0  0  0  0  0  0  0  0  0  0  0  0
    2.8949   -1.4179    0.4388 H   0  0  0  0  0  0  0  0  0  0  0  0
    3.0376   -1.0506   -2.6150 H   0  0  0  0  0  0  0  0  0  0  0  0
    2.9467   -2.5910   -1.7404 H   0  0  0  0  0  0  0  0  0  0  0  0
  1  2  2  0
  2  3  1  0
  3  4  1  0
  4  5  1  0
  5  6  2  0
  6  7  1  0
  7  8  2  0
  8  9  1  0
  9 10  2  0
 10 11  1  0
 11 12  1  0
 12 13  2  0
 13 14  1  0
 14 15  2  0
  2 16  1  0
 16 17  2  0
 17 18  1  0
 18 19  2  0
 19 20  1  0
 20 21  2  0
 20 22  1  0
 22 23  1  0
 23 24  1  0
 24 25  2  0
 24 26  1  0
 26 27  2  0
 27 28  1  0
 28 29  2  0
 29 30  1  0
 30 31  1  0
 31 32  1  0
 32 33  1  0
 32 34  1  0
 32 35  1  0
 29 36  1  0
 36 37  2  0
 23 38  1  0
 38 39  1  0
 10  5  1  0
 15 11  1  0
 21 16  1  0
 37 26  1  0
 39 19  1  0
  3 40  1  0
  4 41  1  0
  4 42  1  0
  6 43  1  0
  7 44  1  0
  8 45  1  0
  9 46  1  0
 12 47  1  0
 13 48  1  0
 14 49  1  0
 15 50  1  0
 17 51  1  0
 18 52  1  0
 22 53  1  0
 22 54  1  0
 27 55  1  0
 28 56  1  0
 31 57  1  0
 31 58  1  0
 37 59  1  0
 38 60  1  0
 38 61  1  0
 39 62  1  0
 39 63  1  0
M  END
$$$$
EDS00480994
     RDKit          3D

 72 77  0  0  0  0  0  0  0  0999 V2000
   -8.2454   -3.0134   -0.0940 C   0  0  0  0  0  0  0  0  0  0  0  0
   -8.0899   -1.5550   -0.3378 C   0  0  0  0  0  0  0  0  0  0  0  0
   -6.8924   -0.8674   -0.5094 C   0  0  0  0  0  0  0  0  0  0  0  0
   -5.5148   -1.3377   -0.4242 C   0  0  0  0  0  0  0  0  0  0  0  0
   -5.2410   -2.4103    0.1176 O   0  0  0  0  0  0  0  0  0  0  0  0
   -4.4877   -0.5443   -0.9355 N   0  0  0  0  0  0  0  0  0  0  0  0
   -4.6123    0.4900   -1.9599 C   0  0  0  0  0  0  0  0  0  0  0  0
   -4.1437    1.8304   -1.3978 C   0  0  0  0  0  0  0  0  0  0  0  0
   -2.7991    1.7079   -0.7180 C   0  0  0  0  0  0  0  0  0  0  0  0
   -2.0489    2.8545   -0.4318 C   0  0  0  0  0  0  0  0  0  0  0  0
   -0.8460    2.7348    0.2531 C   0  0  0  0  0  0  0  0  0  0  0  0
   -0.4278    1.4644    0.6224 C   0  0  0  0  0  0  0  0  0  0  0  0
    0.8362    1.2916    1.4092 C   0  0  0  0  0  0  0  0  0  0  0  0
    1.4577    2.2562    1.8420 O   0  0  0  0  0  0  0  0  0  0  0  0
    1.2086   -0.0222    1.5910 N   0  0  0  0  0  0  0  0  0  0  0  0
    2.3957   -0.4076    2.3056 C   0  0  0  0  0  0  0  0  0  0  0  0
    3.6162   -0.4083    1.4237 C   0  0  0  0  0  0  0  0  0  0  0  0
    4.4645    0.7000    1.3800 C   0  0  0  0  0  0  0  0  0  0  0  0
    5.6078    0.6943    0.5699 C   0  0  0  0  0  0  0  0  0  0  0  0
    5.9599   -0.4126   -0.2172 C   0  0  0  0  0  0  0  0  0  0  0  0
    7.1068   -0.4594   -1.0202 N   0  0  0  0  0  0  0  0  0  0  0  0
    7.9293   -1.6928   -0.9192 C   0  0  0  0  0  0  0  0  0  0  0  0
    8.9442   -1.5853    0.2444 C   0  0  0  0  0  0  0  0  0  0  0  0
    9.8324   -0.4055    0.1181 N   0  0  0  0  0  0  0  0  0  0  0  0
   10.7212   -0.3079    1.2733 C   0  0  0  0  0  0  0  0  0  0  0  0
    9.0126    0.8214   -0.0142 C   0  0  0  0  0  0  0  0  0  0  0  0
    7.9735    0.7319   -1.1617 C   0  0  0  0  0  0  0  0  0  0  0  0
    5.0594   -1.4929   -0.2016 C   0  0  0  0  0  0  0  0  0  0  0  0
    3.9128   -1.4992    0.6048 C   0  0  0  0  0  0  0  0  0  0  0  0
   -1.1227    0.3230    0.3486 N   0  0  0  0  0  0  0  0  0  0  0  0
   -2.3116    0.4604   -0.2904 C   0  0  0  0  0  0  0  0  0  0  0  0
   -3.1174   -0.8128   -0.5110 C   0  0  0  0  0  0  0  0  0  0  0  0
   -7.1551    0.4644   -0.6904 O   0  0  0  0  0  0  0  0  0  0  0  0
   -8.5017    0.6265   -0.6887 C   0  0  0  0  0  0  0  0  0  0  0  0
   -9.1648    1.8358   -0.8800 C   0  0  0  0  0  0  0  0  0  0  0  0
  -10.5639    1.7925   -0.8453 C   0  0  0  0  0  0  0  0  0  0  0  0
  -11.2402    0.5945   -0.6130 C   0  0  0  0  0  0  0  0  0  0  0  0
  -10.5403   -0.6052   -0.4190 C   0  0  0  0  0  0  0  0  0  0  0  0
   -9.1332   -0.5864   -0.4647 C   0  0  0  0  0  0  0  0  0  0  0  0
   -7.6589   -3.3356    0.7724 H   0  0  0  0  0  0  0  0  0  0  0  0
   -7.9159   -3.5769   -0.9770 H   0  0  0  0  0  0  0  0  0  0  0  0
   -9.2908   -3.2777    0.1025 H   0  0  0  0  0  0  0  0  0  0  0  0
   -3.9654    0.1905   -2.7966 H   0  0  0  0  0  0  0  0  0  0  0  0
   -5.6186    0.5544   -2.3756 H   0  0  0  0  0  0  0  0  0  0  0  0
   -4.8649    2.1941   -0.6570 H   0  0  0  0  0  0  0  0  0  0  0  0
   -4.0916    2.5645   -2.2108 H   0  0  0  0  0  0  0  0  0  0  0  0
   -2.4084    3.8386   -0.7191 H   0  0  0  0  0  0  0  0  0  0  0  0
   -0.2508    3.6088    0.5012 H   0  0  0  0  0  0  0  0  0  0  0  0
    0.6770   -0.7155    1.0768 H   0  0  0  0  0  0  0  0  0  0  0  0
    2.5366    0.2600    3.1667 H   0  0  0  0  0  0  0  0  0  0  0  0
    2.2249   -1.4141    2.7102 H   0  0  0  0  0  0  0  0  0  0  0  0
    4.2397    1.5846    1.9761 H   0  0  0  0  0  0  0  0  0  0  0  0
    6.2161    1.5898    0.5870 H   0  0  0  0  0  0  0  0  0  0  0  0
    8.4779   -1.8225   -1.8599 H   0  0  0  0  0  0  0  0  0  0  0  0
    7.3337   -2.6022   -0.7974 H   0  0  0  0  0  0  0  0  0  0  0  0
    9.5574   -2.4957    0.2430 H   0  0  0  0  0  0  0  0  0  0  0  0
    8.4030   -1.5554    1.2012 H   0  0  0  0  0  0  0  0  0  0  0  0
   11.3238   -1.2156    1.3737 H   0  0  0  0  0  0  0  0  0  0  0  0
   11.4205    0.5265    1.1494 H   0  0  0  0  0  0  0  0  0  0  0  0
   10.1705   -0.1625    2.2105 H   0  0  0  0  0  0  0  0  0  0  0  0
    8.4964    1.0279    0.9314 H   0  0  0  0  0  0  0  0  0  0  0  0
    9.6724    1.6751   -0.2141 H   0  0  0  0  0  0  0  0  0  0  0  0
    8.5138    0.6395   -2.1117 H   0  0  0  0  0  0  0  0  0  0  0  0
    7.3949    1.6571   -1.2462 H   0  0  0  0  0  0  0  0  0  0  0  0
    5.2243   -2.3483   -0.8530 H   0  0  0  0  0  0  0  0  0  0  0  0
    3.2528   -2.3616    0.5764 H   0  0  0  0  0  0  0  0  0  0  0  0
   -2.6376   -1.4147   -1.2921 H   0  0  0  0  0  0  0  0  0  0  0  0
   -3.1147   -1.3858    0.4243 H   0  0  0  0  0  0  0  0  0  0  0  0
   -8.6197    2.7559   -1.0534 H   0  0  0  0  0  0  0  0  0  0  0  0
  -11.1296    2.7108   -0.9899 H   0  0  0  0  0  0  0  0  0  0  0  0
  -12.3279    0.5863   -0.5877 H   0  0  0  0  0  0  0  0  0  0  0  0
  -11.0800   -1.5285   -0.2351 H   0  0  0  0  0  0  0  0  0  0  0  0
  1  2  1  0
  2  3  2  0
  3  4  1  0
  4  5  2  0
  4  6  1  0
  6  7  1  0
  7  8  1  0
  8  9  1  0
  9 10  2  0
 10 11  1  0
 11 12  2  0
 12 13  1  0
 13 14  2  0
 13 15  1  0
 15 16  1  0
 16 17  1  0
 17 18  2  0
 18 19  1  0
 19 20  2  0
 20 21  1  0
 21 22  1  0
 22 23  1  0
 23 24  1  0
 24 25  1  0
 24 26  1  0
 26 27  1  0
 20 28  1  0
 28 29  2  0
 12 30  1  0
 30 31  2  0
 31 32  1  0
  3 33  1  0
 33 34  1  0
 34 35  2  0
 35 36  1  0
 36 37  2  0
 37 38  1  0
 38 39  2  0
 39  2  1  0
 32  6  1  0
 39 34  1  0
 31  9  1  0
 29 17  1  0
 27 21  1  0
  1 40  1  0
  1 41  1  0
  1 42  1  0
  7 43  1  0
  7 44  1  0
  8 45  1  0
  8 46  1  0
 10 47  1  0
 11 48  1  0
 15 49  1  0
 16 50  1  0
 16 51  1  0
 18 52  1  0
 19 53  1  0
 22 54  1  0
 22 55  1  0
 23 56  1  0
 23 57  1  0
 25 58  1  0
 25 59  1  0
 25 60  1  0
 26 61  1  0
 26 62  1  0
 27 63  1  0
 27 64  1  0
 28 65  1  0
 29 66  1  0
 32 67  1  0
 32 68  1  0
 35 69  1  0
 36 70  1  0
 37 71  1  0
 38 72  1  0
M  END
$$$$
EDS00490594
     RDKit          3D

 76 81  0  0  0  0  0  0  0  0999 V2000
   -6.8874   -2.1590    0.1247 C   0  0  0  0  0  0  0  0  0  0  0  0
   -6.5896   -0.8697    0.6723 O   0  0  0  0  0  0  0  0  0  0  0  0
   -6.8696    0.1117   -0.2520 C   0  0  0  0  0  0  0  0  0  0  0  0
   -5.9215    0.4629   -1.2226 C   0  0  0  0  0  0  0  0  0  0  0  0
   -4.6015   -0.1948   -1.2966 C   0  0  0  0  0  0  0  0  0  0  0  0
   -4.3586   -0.8667   -2.2966 O   0  0  0  0  0  0  0  0  0  0  0  0
   -3.7049   -0.0267   -0.2460 N   0  0  0  0  0  0  0  0  0  0  0  0
   -3.7965    1.0316    0.7581 C   0  0  0  0  0  0  0  0  0  0  0  0
   -3.4422    0.4892    2.1385 C   0  0  0  0  0  0  0  0  0  0  0  0
   -2.1211   -0.2340    2.1211 C   0  0  0  0  0  0  0  0  0  0  0  0
   -1.3848   -0.3912    3.3001 C   0  0  0  0  0  0  0  0  0  0  0  0
   -0.1846   -1.0901    3.2715 C   0  0  0  0  0  0  0  0  0  0  0  0
    0.2365   -1.6141    2.0591 C   0  0  0  0  0  0  0  0  0  0  0  0
    1.5180   -2.3871    1.9947 C   0  0  0  0  0  0  0  0  0  0  0  0
    2.2031   -2.5695    2.9946 O   0  0  0  0  0  0  0  0  0  0  0  0
    1.8424   -2.8489    0.7371 N   0  0  0  0  0  0  0  0  0  0  0  0
    3.0925   -3.5080    0.4503 C   0  0  0  0  0  0  0  0  0  0  0  0
    4.2127   -2.5812    0.0370 C   0  0  0  0  0  0  0  0  0  0  0  0
    4.0084   -1.2615   -0.3784 C   0  0  0  0  0  0  0  0  0  0  0  0
    5.0852   -0.4548   -0.7801 C   0  0  0  0  0  0  0  0  0  0  0  0
    6.3977   -0.9369   -0.7904 C   0  0  0  0  0  0  0  0  0  0  0  0
    7.5039   -0.1766   -1.1844 N   0  0  0  0  0  0  0  0  0  0  0  0
    7.3266    0.9632   -2.1084 C   0  0  0  0  0  0  0  0  0  0  0  0
    7.5465    2.3062   -1.3813 C   0  0  0  0  0  0  0  0  0  0  0  0
    8.9188    2.4628   -0.8452 N   0  0  0  0  0  0  0  0  0  0  0  0
    8.9328    3.4083    0.2664 C   0  0  0  0  0  0  0  0  0  0  0  0
    9.4986    1.1544   -0.4637 C   0  0  0  0  0  0  0  0  0  0  0  0
    8.4734    0.0607   -0.0866 C   0  0  0  0  0  0  0  0  0  0  0  0
    6.5916   -2.2622   -0.3763 C   0  0  0  0  0  0  0  0  0  0  0  0
    5.5232   -3.0731    0.0266 C   0  0  0  0  0  0  0  0  0  0  0  0
   -0.4546   -1.4843    0.8900 N   0  0  0  0  0  0  0  0  0  0  0  0
   -1.6332   -0.8093    0.9400 C   0  0  0  0  0  0  0  0  0  0  0  0
   -2.4043   -0.6869   -0.3613 C   0  0  0  0  0  0  0  0  0  0  0  0
   -6.2168    1.4420   -2.1713 C   0  0  0  0  0  0  0  0  0  0  0  0
   -7.4394    2.1122   -2.1163 C   0  0  0  0  0  0  0  0  0  0  0  0
   -8.3800    1.8159   -1.1167 C   0  0  0  0  0  0  0  0  0  0  0  0
   -9.5984    2.5113   -1.0513 C   0  0  0  0  0  0  0  0  0  0  0  0
  -10.5354    2.2255   -0.0585 C   0  0  0  0  0  0  0  0  0  0  0  0
  -10.2673    1.2401    0.8856 C   0  0  0  0  0  0  0  0  0  0  0  0
   -9.0621    0.5384    0.8335 C   0  0  0  0  0  0  0  0  0  0  0  0
   -8.0992    0.8058   -0.1634 C   0  0  0  0  0  0  0  0  0  0  0  0
   -7.8893   -2.1955   -0.3142 H   0  0  0  0  0  0  0  0  0  0  0  0
   -6.1365   -2.4547   -0.6149 H   0  0  0  0  0  0  0  0  0  0  0  0
   -6.8572   -2.8817    0.9443 H   0  0  0  0  0  0  0  0  0  0  0  0
   -4.7866    1.4944    0.7860 H   0  0  0  0  0  0  0  0  0  0  0  0
   -3.0919    1.8176    0.4557 H   0  0  0  0  0  0  0  0  0  0  0  0
   -4.2135   -0.2146    2.4735 H   0  0  0  0  0  0  0  0  0  0  0  0
   -3.4083    1.3218    2.8503 H   0  0  0  0  0  0  0  0  0  0  0  0
   -1.7419    0.0224    4.2395 H   0  0  0  0  0  0  0  0  0  0  0  0
    0.4056   -1.2266    4.1720 H   0  0  0  0  0  0  0  0  0  0  0  0
    1.2454   -2.5477   -0.0271 H   0  0  0  0  0  0  0  0  0  0  0  0
    2.9013   -4.2189   -0.3593 H   0  0  0  0  0  0  0  0  0  0  0  0
    3.3983   -4.0701    1.3387 H   0  0  0  0  0  0  0  0  0  0  0  0
    3.0121   -0.8287   -0.3864 H   0  0  0  0  0  0  0  0  0  0  0  0
    4.8675    0.5701   -1.0582 H   0  0  0  0  0  0  0  0  0  0  0  0
    8.0662    0.8632   -2.9136 H   0  0  0  0  0  0  0  0  0  0  0  0
    6.3525    0.9570   -2.6101 H   0  0  0  0  0  0  0  0  0  0  0  0
    6.8057    2.3803   -0.5745 H   0  0  0  0  0  0  0  0  0  0  0  0
    7.3501    3.1277   -2.0795 H   0  0  0  0  0  0  0  0  0  0  0  0
    9.9608    3.6099    0.5862 H   0  0  0  0  0  0  0  0  0  0  0  0
    8.5082    4.3699   -0.0413 H   0  0  0  0  0  0  0  0  0  0  0  0
    8.3708    3.0396    1.1322 H   0  0  0  0  0  0  0  0  0  0  0  0
   10.0700    0.7935   -1.3291 H   0  0  0  0  0  0  0  0  0  0  0  0
   10.2325    1.2675    0.3434 H   0  0  0  0  0  0  0  0  0  0  0  0
    9.0173   -0.8641    0.1406 H   0  0  0  0  0  0  0  0  0  0  0  0
    7.9470    0.3730    0.8249 H   0  0  0  0  0  0  0  0  0  0  0  0
    7.5920   -2.6893   -0.3937 H   0  0  0  0  0  0  0  0  0  0  0  0
    5.7295   -4.0964    0.3300 H   0  0  0  0  0  0  0  0  0  0  0  0
   -1.8037   -0.1021   -1.0699 H   0  0  0  0  0  0  0  0  0  0  0  0
   -2.5471   -1.6880   -0.7854 H   0  0  0  0  0  0  0  0  0  0  0  0
   -5.4956    1.6875   -2.9469 H   0  0  0  0  0  0  0  0  0  0  0  0
   -7.6498    2.8783   -2.8607 H   0  0  0  0  0  0  0  0  0  0  0  0
   -9.8270    3.2883   -1.7775 H   0  0  0  0  0  0  0  0  0  0  0  0
  -11.4761    2.7711   -0.0233 H   0  0  0  0  0  0  0  0  0  0  0  0
  -10.9931    1.0157    1.6643 H   0  0  0  0  0  0  0  0  0  0  0  0
   -8.8740   -0.2257    1.5856 H   0  0  0  0  0  0  0  0  0  0  0  0
  1  2  1  0
  2  3  1  0
  3  4  2  0
  4  5  1  0
  5  6  2  0
  5  7  1  0
  7  8  1  0
  8  9  1  0
  9 10  1  0
 10 11  2  0
 11 12  1  0
 12 13  2  0
 13 14  1  0
 14 15  2  0
 14 16  1  0
 16 17  1  0
 17 18  1  0
 18 19  2  0
 19 20  1  0
 20 21  2  0
 21 22  1  0
 22 23  1  0
 23 24  1  0
 24 25  1  0
 25 26  1  0
 25 27  1  0
 27 28  1  0
 21 29  1  0
 29 30  2  0
 13 31  1  0
 31 32  2  0
 32 33  1  0
  4 34  1  0
 34 35  2  0
 35 36  1  0
 36 37  2  0
 37 38  1  0
 38 39  2  0
 39 40  1  0
 40 41  2  0
 41  3  1  0
 33  7  1  0
 41 36  1  0
 32 10  1  0
 30 18  1  0
 28 22  1  0
  1 42  1  0
  1 43  1  0
  1 44  1  0
  8 45  1  0
  8 46  1  0
  9 47  1  0
  9 48  1  0
 11 49  1  0
 12 50  1  0
 16 51  1  0
 17 52  1  0
 17 53  1  0
 19 54  1  0
 20 55  1  0
 23 56  1  0
 23 57  1  0
 24 58  1  0
 24 59  1  0
 26 60  1  0
 26 61  1  0
 26 62  1  0
 27 63  1  0
 27 64  1  0
 28 65  1  0
 28 66  1  0
 29 67  1  0
 30 68  1  0
 33 69  1  0
 33 70  1  0
 34 71  1  0
 35 72  1  0
 37 73  1  0
 38 74  1  0
 39 75  1  0
 40 76  1  0
M  END
$$$$
EDS00481762
     RDKit          3D

 69 74  0  0  0  0  0  0  0  0999 V2000
    8.6441    1.0056    3.0039 C   0  0  0  0  0  0  0  0  0  0  0  0
    7.8637    0.2699    2.0137 N   0  0  0  0  0  0  0  0  0  0  0  0
    6.4869    0.0031    2.4835 C   0  0  0  0  0  0  0  0  0  0  0  0
    5.3856    0.9338    1.9194 C   0  0  0  0  0  0  0  0  0  0  0  0
    5.3912    0.9346    0.4484 N   0  0  0  0  0  0  0  0  0  0  0  0
    4.2622    1.2469   -0.2891 C   0  0  0  0  0  0  0  0  0  0  0  0
    4.1301    0.8720   -1.6354 C   0  0  0  0  0  0  0  0  0  0  0  0
    2.9925    1.1891   -2.3900 C   0  0  0  0  0  0  0  0  0  0  0  0
    1.9390    1.9073   -1.8211 C   0  0  0  0  0  0  0  0  0  0  0  0
    0.7072    2.2266   -2.6261 C   0  0  0  0  0  0  0  0  0  0  0  0
   -0.2565    1.1591   -2.5389 N   0  0  0  0  0  0  0  0  0  0  0  0
   -0.3011    0.1277   -3.4519 C   0  0  0  0  0  0  0  0  0  0  0  0
    0.3296    0.1072   -4.5029 O   0  0  0  0  0  0  0  0  0  0  0  0
   -1.1849   -1.0139   -3.0470 C   0  0  0  0  0  0  0  0  0  0  0  0
   -1.2535   -2.1454   -3.8453 C   0  0  0  0  0  0  0  0  0  0  0  0
   -2.0609   -3.1944   -3.4240 C   0  0  0  0  0  0  0  0  0  0  0  0
   -2.7683   -3.0840   -2.2229 C   0  0  0  0  0  0  0  0  0  0  0  0
   -2.6635   -1.8962   -1.4891 C   0  0  0  0  0  0  0  0  0  0  0  0
   -1.8702   -0.8649   -1.8764 N   0  0  0  0  0  0  0  0  0  0  0  0
   -3.4190   -1.7149   -0.1872 C   0  0  0  0  0  0  0  0  0  0  0  0
   -4.3985   -2.7686    0.1065 N   0  0  0  0  0  0  0  0  0  0  0  0
   -5.2239   -2.6625    1.2421 C   0  0  0  0  0  0  0  0  0  0  0  0
   -5.5130   -3.6619    1.9001 O   0  0  0  0  0  0  0  0  0  0  0  0
   -5.7417   -1.3442    1.5738 C   0  0  0  0  0  0  0  0  0  0  0  0
   -6.2900   -0.3862    0.7454 C   0  0  0  0  0  0  0  0  0  0  0  0
   -6.7099    0.7937    1.4457 C   0  0  0  0  0  0  0  0  0  0  0  0
   -7.2957    1.9901    0.9657 C   0  0  0  0  0  0  0  0  0  0  0  0
   -7.6262    3.0206    1.8510 C   0  0  0  0  0  0  0  0  0  0  0  0
   -7.3853    2.8804    3.2107 C   0  0  0  0  0  0  0  0  0  0  0  0
   -6.8129    1.7091    3.7135 C   0  0  0  0  0  0  0  0  0  0  0  0
   -6.4806    0.6742    2.8180 C   0  0  0  0  0  0  0  0  0  0  0  0
   -5.7798   -0.8495    3.2072 S   0  0  0  0  0  0  0  0  0  0  0  0
   -3.9777   -4.1140   -0.2722 C   0  0  0  0  0  0  0  0  0  0  0  0
   -3.6739   -4.1948   -1.7667 C   0  0  0  0  0  0  0  0  0  0  0  0
    2.0405    2.2785   -0.4791 C   0  0  0  0  0  0  0  0  0  0  0  0
    3.1833    1.9532    0.2660 C   0  0  0  0  0  0  0  0  0  0  0  0
    6.6735    0.6140   -0.2024 C   0  0  0  0  0  0  0  0  0  0  0  0
    7.8603    0.9829    0.7177 C   0  0  0  0  0  0  0  0  0  0  0  0
    8.7434    0.4207    3.9259 H   0  0  0  0  0  0  0  0  0  0  0  0
    9.6610    1.1853    2.6352 H   0  0  0  0  0  0  0  0  0  0  0  0
    8.1906    1.9712    3.2557 H   0  0  0  0  0  0  0  0  0  0  0  0
    6.4357    0.0002    3.5791 H   0  0  0  0  0  0  0  0  0  0  0  0
    6.2444   -1.0230    2.1767 H   0  0  0  0  0  0  0  0  0  0  0  0
    4.4245    0.5711    2.3040 H   0  0  0  0  0  0  0  0  0  0  0  0
    5.5378    1.9552    2.2878 H   0  0  0  0  0  0  0  0  0  0  0  0
    4.9074    0.2930   -2.1260 H   0  0  0  0  0  0  0  0  0  0  0  0
    2.9317    0.8592   -3.4261 H   0  0  0  0  0  0  0  0  0  0  0  0
    0.2295    3.1358   -2.2454 H   0  0  0  0  0  0  0  0  0  0  0  0
    0.9739    2.4137   -3.6721 H   0  0  0  0  0  0  0  0  0  0  0  0
   -0.7277    0.9857   -1.6570 H   0  0  0  0  0  0  0  0  0  0  0  0
   -0.6876   -2.2111   -4.7693 H   0  0  0  0  0  0  0  0  0  0  0  0
   -2.1334   -4.0925   -4.0323 H   0  0  0  0  0  0  0  0  0  0  0  0
   -3.9019   -0.7346   -0.2080 H   0  0  0  0  0  0  0  0  0  0  0  0
   -2.6941   -1.7101    0.6380 H   0  0  0  0  0  0  0  0  0  0  0  0
   -6.3934   -0.5186   -0.3257 H   0  0  0  0  0  0  0  0  0  0  0  0
   -7.4916    2.1120   -0.0967 H   0  0  0  0  0  0  0  0  0  0  0  0
   -8.0748    3.9355    1.4699 H   0  0  0  0  0  0  0  0  0  0  0  0
   -7.6462    3.6858    3.8937 H   0  0  0  0  0  0  0  0  0  0  0  0
   -6.6293    1.5994    4.7786 H   0  0  0  0  0  0  0  0  0  0  0  0
   -3.0935   -4.3676    0.3272 H   0  0  0  0  0  0  0  0  0  0  0  0
   -4.7591   -4.8433   -0.0285 H   0  0  0  0  0  0  0  0  0  0  0  0
   -4.6098   -4.1218   -2.3349 H   0  0  0  0  0  0  0  0  0  0  0  0
   -3.2207   -5.1682   -1.9864 H   0  0  0  0  0  0  0  0  0  0  0  0
    1.2353    2.8280    0.0026 H   0  0  0  0  0  0  0  0  0  0  0  0
    3.2190    2.2899    1.2981 H   0  0  0  0  0  0  0  0  0  0  0  0
    6.7049   -0.4543   -0.4503 H   0  0  0  0  0  0  0  0  0  0  0  0
    6.7945    1.1846   -1.1319 H   0  0  0  0  0  0  0  0  0  0  0  0
    7.8267    2.0695    0.8825 H   0  0  0  0  0  0  0  0  0  0  0  0
    8.7997    0.7652    0.1954 H   0  0  0  0  0  0  0  0  0  0  0  0
  1  2  1  0
  2  3  1  0
  3  4  1  0
  4  5  1  0
  5  6  1  0
  6  7  2  0
  7  8  1  0
  8  9  2  0
  9 10  1  0
 10 11  1  0
 11 12  1  0
 12 13  2  0
 12 14  1  0
 14 15  2  0
 15 16  1  0
 16 17  2  0
 17 18  1  0
 18 19  2  0
 18 20  1  0
 20 21  1  0
 21 22  1  0
 22 23  2  0
 22 24  1  0
 24 25  2  0
 25 26  1  0
 26 27  2  0
 27 28  1  0
 28 29  2  0
 29 30  1  0
 30 31  2  0
 31 32  1  0
 21 33  1  0
 33 34  1  0
  9 35  1  0
 35 36  2  0
  5 37  1  0
 37 38  1  0
 38  2  1  0
 36  6  1  0
 19 14  1  0
 32 24  1  0
 34 17  1  0
 31 26  1  0
  1 39  1  0
  1 40  1  0
  1 41  1  0
  3 42  1  0
  3 43  1  0
  4 44  1  0
  4 45  1  0
  7 46  1  0
  8 47  1  0
 10 48  1  0
 10 49  1  0
 11 50  1  0
 15 51  1  0
 16 52  1  0
 20 53  1  0
 20 54  1  0
 25 55  1  0
 27 56  1  0
 28 57  1  0
 29 58  1  0
 30 59  1  0
 33 60  1  0
 33 61  1  0
 34 62  1  0
 34 63  1  0
 35 64  1  0
 36 65  1  0
 37 66  1  0
 37 67  1  0
 38 68  1  0
 38 69  1  0
M  END
$$$$
EDS00469766
     RDKit          3D

 51 54  0  0  0  0  0  0  0  0999 V2000
   -3.1063   -2.0993   -1.7294 O   0  0  0  0  0  0  0  0  0  0  0  0
   -2.1918   -1.3789   -1.3478 C   0  0  0  0  0  0  0  0  0  0  0  0
   -2.3661   -0.0992   -0.8587 N   0  0  0  0  0  0  0  0  0  0  0  0
   -3.6745    0.4799   -0.6234 C   0  0  0  0  0  0  0  0  0  0  0  0
   -3.5871    2.0153   -0.6273 C   0  0  0  0  0  0  0  0  0  0  0  0
   -4.7256    2.7031    0.1307 C   0  0  0  0  0  0  0  0  0  0  0  0
   -5.9571    1.8250    0.2291 C   0  0  0  0  0  0  0  0  0  0  0  0
   -6.9486    2.4905    0.8695 F   0  0  0  0  0  0  0  0  0  0  0  0
   -6.4130    1.5725   -1.0253 F   0  0  0  0  0  0  0  0  0  0  0  0
   -5.6852    0.5086    0.9418 C   0  0  0  0  0  0  0  0  0  0  0  0
   -4.2775   -0.0376    0.6866 C   0  0  0  0  0  0  0  0  0  0  0  0
   -0.7650   -1.8399   -1.3631 C   0  0  0  0  0  0  0  0  0  0  0  0
   -0.4489   -3.0895   -1.8728 C   0  0  0  0  0  0  0  0  0  0  0  0
    0.8851   -3.4784   -1.8657 C   0  0  0  0  0  0  0  0  0  0  0  0
    1.8572   -2.6085   -1.3610 C   0  0  0  0  0  0  0  0  0  0  0  0
    1.4503   -1.3699   -0.8481 C   0  0  0  0  0  0  0  0  0  0  0  0
    0.1519   -0.9708   -0.8471 N   0  0  0  0  0  0  0  0  0  0  0  0
    2.4585   -0.3904   -0.2757 C   0  0  0  0  0  0  0  0  0  0  0  0
    3.8316   -0.8971   -0.1982 N   0  0  0  0  0  0  0  0  0  0  0  0
    4.8189   -0.3453    0.6256 C   0  0  0  0  0  0  0  0  0  0  0  0
    5.9850   -0.7383    0.6136 O   0  0  0  0  0  0  0  0  0  0  0  0
    4.4594    0.7732    1.5480 C   0  0  0  0  0  0  0  0  0  0  0  0
    3.8517    1.8467    0.9550 N   0  0  0  0  0  0  0  0  0  0  0  0
    3.5681    2.9017    1.7475 C   0  0  0  0  0  0  0  0  0  0  0  0
    3.8464    2.9389    3.1036 C   0  0  0  0  0  0  0  0  0  0  0  0
    4.4519    1.8280    3.6882 C   0  0  0  0  0  0  0  0  0  0  0  0
    4.7714    0.7184    2.9043 C   0  0  0  0  0  0  0  0  0  0  0  0
    5.4648   -0.6527    3.6830 Cl  0  0  0  0  0  0  0  0  0  0  0  0
    4.2357   -1.8167   -1.2549 C   0  0  0  0  0  0  0  0  0  0  0  0
    3.3034   -3.0238   -1.3127 C   0  0  0  0  0  0  0  0  0  0  0  0
   -1.5279    0.3307   -0.4737 H   0  0  0  0  0  0  0  0  0  0  0  0
   -4.3241    0.1601   -1.4488 H   0  0  0  0  0  0  0  0  0  0  0  0
   -3.5793    2.3594   -1.6697 H   0  0  0  0  0  0  0  0  0  0  0  0
   -2.6350    2.3553   -0.1993 H   0  0  0  0  0  0  0  0  0  0  0  0
   -4.9748    3.6487   -0.3642 H   0  0  0  0  0  0  0  0  0  0  0  0
   -4.3911    2.9685    1.1414 H   0  0  0  0  0  0  0  0  0  0  0  0
   -6.4232   -0.2293    0.6047 H   0  0  0  0  0  0  0  0  0  0  0  0
   -5.8345    0.6233    2.0219 H   0  0  0  0  0  0  0  0  0  0  0  0
   -3.6250    0.2550    1.5206 H   0  0  0  0  0  0  0  0  0  0  0  0
   -4.3061   -1.1338    0.7027 H   0  0  0  0  0  0  0  0  0  0  0  0
   -1.2216   -3.7440   -2.2634 H   0  0  0  0  0  0  0  0  0  0  0  0
    1.1620   -4.4564   -2.2527 H   0  0  0  0  0  0  0  0  0  0  0  0
    2.1199   -0.1023    0.7247 H   0  0  0  0  0  0  0  0  0  0  0  0
    2.4740    0.4982   -0.9173 H   0  0  0  0  0  0  0  0  0  0  0  0
    3.0978    3.7458    1.2491 H   0  0  0  0  0  0  0  0  0  0  0  0
    3.5968    3.8134    3.6958 H   0  0  0  0  0  0  0  0  0  0  0  0
    4.6716    1.8325    4.7532 H   0  0  0  0  0  0  0  0  0  0  0  0
    5.2659   -2.1594   -1.1146 H   0  0  0  0  0  0  0  0  0  0  0  0
    4.2062   -1.2570   -2.1984 H   0  0  0  0  0  0  0  0  0  0  0  0
    3.4491   -3.6469   -0.4217 H   0  0  0  0  0  0  0  0  0  0  0  0
    3.5550   -3.6272   -2.1926 H   0  0  0  0  0  0  0  0  0  0  0  0
  1  2  2  0
  2  3  1  0
  3  4  1  0
  4  5  1  0
  5  6  1  0
  6  7  1  0
  7  8  1  0
  7  9  1  0
  7 10  1  0
 10 11  1  0
  2 12  1  0
 12 13  2  0
 13 14  1  0
 14 15  2  0
 15 16  1  0
 16 17  2  0
 16 18  1  0
 18 19  1  0
 19 20  1  0
 20 21  2  0
 20 22  1  0
 22 23  2  0
 23 24  1  0
 24 25  2  0
 25 26  1  0
 26 27  2  0
 27 28  1  0
 19 29  1  0
 29 30  1  0
 11  4  1  0
 17 12  1  0
 27 22  1  0
 30 15  1  0
  3 31  1  0
  4 32  1  0
  5 33  1  0
  5 34  1  0
  6 35  1  0
  6 36  1  0
 10 37  1  0
 10 38  1  0
 11 39  1  0
 11 40  1  0
 13 41  1  0
 14 42  1  0
 18 43  1  0
 18 44  1  0
 24 45  1  0
 25 46  1  0
 26 47  1  0
 29 48  1  0
 29 49  1  0
 30 50  1  0
 30 51  1  0
M  END
$$$$
EDS00459346
     RDKit          3D

 64 68  0  0  0  0  0  0  0  0999 V2000
    9.8415   -1.8257   -1.0224 C   0  0  0  0  0  0  0  0  0  0  0  0
    8.4868   -1.2964   -0.7348 C   0  0  0  0  0  0  0  0  0  0  0  0
    7.2851   -1.9471   -0.5643 C   0  0  0  0  0  0  0  0  0  0  0  0
    6.3100   -0.9350   -0.3291 C   0  0  0  0  0  0  0  0  0  0  0  0
    4.8626   -1.1893   -0.1268 C   0  0  0  0  0  0  0  0  0  0  0  0
    4.4127   -2.3210   -0.3307 O   0  0  0  0  0  0  0  0  0  0  0  0
    4.0041   -0.1606    0.2888 N   0  0  0  0  0  0  0  0  0  0  0  0
    4.4458    1.1613    0.7459 C   0  0  0  0  0  0  0  0  0  0  0  0
    3.4170    1.9033    1.6035 C   0  0  0  0  0  0  0  0  0  0  0  0
    2.0794    1.9165    0.9256 C   0  0  0  0  0  0  0  0  0  0  0  0
    1.2225    3.0158    0.9824 C   0  0  0  0  0  0  0  0  0  0  0  0
   -0.0126    2.9474    0.3476 C   0  0  0  0  0  0  0  0  0  0  0  0
   -0.3500    1.7697   -0.3050 C   0  0  0  0  0  0  0  0  0  0  0  0
   -1.6818    1.6512   -0.9859 C   0  0  0  0  0  0  0  0  0  0  0  0
   -2.4551    2.6000   -1.0463 O   0  0  0  0  0  0  0  0  0  0  0  0
   -1.9277    0.4046   -1.5180 N   0  0  0  0  0  0  0  0  0  0  0  0
   -3.2179    0.0187   -2.0461 C   0  0  0  0  0  0  0  0  0  0  0  0
   -3.9809   -0.8803   -1.0975 C   0  0  0  0  0  0  0  0  0  0  0  0
   -3.5565   -2.1849   -0.8735 C   0  0  0  0  0  0  0  0  0  0  0  0
   -4.2758   -2.9688    0.0159 C   0  0  0  0  0  0  0  0  0  0  0  0
   -5.3939   -2.4292    0.6475 C   0  0  0  0  0  0  0  0  0  0  0  0
   -5.7860   -1.1186    0.3773 C   0  0  0  0  0  0  0  0  0  0  0  0
   -6.8855   -0.5578    1.0215 N   0  0  0  0  0  0  0  0  0  0  0  0
   -8.1223   -1.3521    1.1165 C   0  0  0  0  0  0  0  0  0  0  0  0
   -9.3236   -0.5665    0.5622 C   0  0  0  0  0  0  0  0  0  0  0  0
   -9.5392    0.6902    1.2195 O   0  0  0  0  0  0  0  0  0  0  0  0
   -8.3167    1.3523    1.5899 C   0  0  0  0  0  0  0  0  0  0  0  0
   -7.0864    0.8848    0.7964 C   0  0  0  0  0  0  0  0  0  0  0  0
   -5.0720   -0.3578   -0.4806 N   0  0  0  0  0  0  0  0  0  0  0  0
    0.4566    0.6696   -0.3618 N   0  0  0  0  0  0  0  0  0  0  0  0
    1.6649    0.7674    0.2463 C   0  0  0  0  0  0  0  0  0  0  0  0
    2.5682   -0.4487    0.2397 C   0  0  0  0  0  0  0  0  0  0  0  0
    6.8918    0.2794   -0.3699 N   0  0  0  0  0  0  0  0  0  0  0  0
    8.1951    0.0333   -0.5963 N   0  0  0  0  0  0  0  0  0  0  0  0
    9.1054    1.1493   -0.7047 C   0  0  0  0  0  0  0  0  0  0  0  0
    9.8011   -2.8934   -1.2633 H   0  0  0  0  0  0  0  0  0  0  0  0
   10.4951   -1.6992   -0.1538 H   0  0  0  0  0  0  0  0  0  0  0  0
   10.2909   -1.3081   -1.8765 H   0  0  0  0  0  0  0  0  0  0  0  0
    7.1052   -3.0140   -0.6178 H   0  0  0  0  0  0  0  0  0  0  0  0
    4.6690    1.7497   -0.1525 H   0  0  0  0  0  0  0  0  0  0  0  0
    5.3599    1.0579    1.3379 H   0  0  0  0  0  0  0  0  0  0  0  0
    3.7716    2.9237    1.7892 H   0  0  0  0  0  0  0  0  0  0  0  0
    3.3076    1.4066    2.5753 H   0  0  0  0  0  0  0  0  0  0  0  0
    1.5083    3.9201    1.5130 H   0  0  0  0  0  0  0  0  0  0  0  0
   -0.7005    3.7865    0.3683 H   0  0  0  0  0  0  0  0  0  0  0  0
   -1.2206   -0.3005   -1.3327 H   0  0  0  0  0  0  0  0  0  0  0  0
   -3.8131    0.9095   -2.2757 H   0  0  0  0  0  0  0  0  0  0  0  0
   -3.0404   -0.5135   -2.9872 H   0  0  0  0  0  0  0  0  0  0  0  0
   -2.6797   -2.5825   -1.3728 H   0  0  0  0  0  0  0  0  0  0  0  0
   -3.9661   -3.9875    0.2299 H   0  0  0  0  0  0  0  0  0  0  0  0
   -5.9362   -3.0290    1.3704 H   0  0  0  0  0  0  0  0  0  0  0  0
   -8.2940   -1.5757    2.1760 H   0  0  0  0  0  0  0  0  0  0  0  0
   -8.0575   -2.3037    0.5756 H   0  0  0  0  0  0  0  0  0  0  0  0
   -9.1944   -0.3706   -0.5089 H   0  0  0  0  0  0  0  0  0  0  0  0
  -10.2394   -1.1560    0.6755 H   0  0  0  0  0  0  0  0  0  0  0  0
   -8.4712    2.4272    1.4519 H   0  0  0  0  0  0  0  0  0  0  0  0
   -8.1651    1.1772    2.6613 H   0  0  0  0  0  0  0  0  0  0  0  0
   -6.2100    1.4500    1.1356 H   0  0  0  0  0  0  0  0  0  0  0  0
   -7.2486    1.0870   -0.2708 H   0  0  0  0  0  0  0  0  0  0  0  0
    2.3540   -1.0446   -0.6551 H   0  0  0  0  0  0  0  0  0  0  0  0
    2.3308   -1.0635    1.1155 H   0  0  0  0  0  0  0  0  0  0  0  0
    8.7254    1.9798   -0.1031 H   0  0  0  0  0  0  0  0  0  0  0  0
   10.0881    0.8531   -0.3304 H   0  0  0  0  0  0  0  0  0  0  0  0
    9.1646    1.4387   -1.7568 H   0  0  0  0  0  0  0  0  0  0  0  0
  1  2  1  0
  2  3  2  0
  3  4  1  0
  4  5  1  0
  5  6  2  0
  5  7  1  0
  7  8  1  0
  8  9  1  0
  9 10  1  0
 10 11  2  0
 11 12  1  0
 12 13  2  0
 13 14  1  0
 14 15  2  0
 14 16  1  0
 16 17  1  0
 17 18  1  0
 18 19  2  0
 19 20  1  0
 20 21  2  0
 21 22  1  0
 22 23  1  0
 23 24  1  0
 24 25  1  0
 25 26  1  0
 26 27  1  0
 27 28  1  0
 22 29  2  0
 13 30  1  0
 30 31  2  0
 31 32  1  0
  4 33  2  0
 33 34  1  0
 34 35  1  0
 34  2  1  0
 32  7  1  0
 31 10  1  0
 29 18  1  0
 28 23  1  0
  1 36  1  0
  1 37  1  0
  1 38  1  0
  3 39  1  0
  8 40  1  0
  8 41  1  0
  9 42  1  0
  9 43  1  0
 11 44  1  0
 12 45  1  0
 16 46  1  0
 17 47  1  0
 17 48  1  0
 19 49  1  0
 20 50  1  0
 21 51  1  0
 24 52  1  0
 24 53  1  0
 25 54  1  0
 25 55  1  0
 27 56  1  0
 27 57  1  0
 28 58  1  0
 28 59  1  0
 32 60  1  0
 32 61  1  0
 35 62  1  0
 35 63  1  0
 35 64  1  0
M  END
$$$$
EDS00459274
     RDKit          3D

 52 55  0  0  0  0  0  0  0  0999 V2000
   -7.3837    0.7123    2.7970 C   0  0  0  0  0  0  0  0  0  0  0  0
   -6.1049    0.4399    2.0996 C   0  0  0  0  0  0  0  0  0  0  0  0
   -4.9561   -0.1818    2.5365 C   0  0  0  0  0  0  0  0  0  0  0  0
   -4.0482   -0.1518    1.4424 C   0  0  0  0  0  0  0  0  0  0  0  0
   -2.6579   -0.6551    1.4729 C   0  0  0  0  0  0  0  0  0  0  0  0
   -2.0893   -0.8263    2.5537 O   0  0  0  0  0  0  0  0  0  0  0  0
   -1.9898   -0.8998    0.2697 N   0  0  0  0  0  0  0  0  0  0  0  0
   -2.6416   -1.3506   -0.9565 C   0  0  0  0  0  0  0  0  0  0  0  0
   -2.0314   -0.6444   -2.1642 C   0  0  0  0  0  0  0  0  0  0  0  0
   -0.5267   -0.7501   -2.1610 C   0  0  0  0  0  0  0  0  0  0  0  0
    0.1991   -0.5657   -3.3422 C   0  0  0  0  0  0  0  0  0  0  0  0
    1.5867   -0.6404   -3.3151 C   0  0  0  0  0  0  0  0  0  0  0  0
    2.2020   -0.8922   -2.0985 C   0  0  0  0  0  0  0  0  0  0  0  0
    3.6969   -0.9777   -2.0201 C   0  0  0  0  0  0  0  0  0  0  0  0
    4.4031   -0.8092   -3.0066 O   0  0  0  0  0  0  0  0  0  0  0  0
    4.1773   -1.2476   -0.7585 N   0  0  0  0  0  0  0  0  0  0  0  0
    5.5804   -1.2416   -0.4256 C   0  0  0  0  0  0  0  0  0  0  0  0
    6.0234    0.0947    0.1047 C   0  0  0  0  0  0  0  0  0  0  0  0
    6.9306    0.8622   -0.6385 C   0  0  0  0  0  0  0  0  0  0  0  0
    7.4186    0.3912   -1.7943 F   0  0  0  0  0  0  0  0  0  0  0  0
    7.3669    2.1147   -0.2069 C   0  0  0  0  0  0  0  0  0  0  0  0
    6.8990    2.6293    0.9971 C   0  0  0  0  0  0  0  0  0  0  0  0
    6.0049    1.8802    1.7554 C   0  0  0  0  0  0  0  0  0  0  0  0
    5.5744    2.3915    2.9187 F   0  0  0  0  0  0  0  0  0  0  0  0
    5.5665    0.6223    1.3239 C   0  0  0  0  0  0  0  0  0  0  0  0
    4.4685   -0.2551    2.3337 Cl  0  0  0  0  0  0  0  0  0  0  0  0
    1.5300   -1.0660   -0.9250 N   0  0  0  0  0  0  0  0  0  0  0  0
    0.1761   -0.9803   -0.9683 C   0  0  0  0  0  0  0  0  0  0  0  0
   -0.5602   -1.1789    0.3448 C   0  0  0  0  0  0  0  0  0  0  0  0
   -4.6070    0.4806    0.3916 N   0  0  0  0  0  0  0  0  0  0  0  0
   -5.8419    0.8137    0.8096 N   0  0  0  0  0  0  0  0  0  0  0  0
   -6.7179    1.5304   -0.0887 C   0  0  0  0  0  0  0  0  0  0  0  0
   -8.1998    0.1432    2.3406 H   0  0  0  0  0  0  0  0  0  0  0  0
   -7.6328    1.7773    2.7536 H   0  0  0  0  0  0  0  0  0  0  0  0
   -7.3215    0.4260    3.8523 H   0  0  0  0  0  0  0  0  0  0  0  0
   -4.7697   -0.5983    3.5177 H   0  0  0  0  0  0  0  0  0  0  0  0
   -2.4701   -2.4337   -1.0235 H   0  0  0  0  0  0  0  0  0  0  0  0
   -3.7239   -1.2292   -0.9450 H   0  0  0  0  0  0  0  0  0  0  0  0
   -2.4388   -1.0861   -3.0811 H   0  0  0  0  0  0  0  0  0  0  0  0
   -2.3009    0.4188   -2.1483 H   0  0  0  0  0  0  0  0  0  0  0  0
   -0.3103   -0.3635   -4.2813 H   0  0  0  0  0  0  0  0  0  0  0  0
    2.1732   -0.5026   -4.2177 H   0  0  0  0  0  0  0  0  0  0  0  0
    3.4834   -1.2848   -0.0149 H   0  0  0  0  0  0  0  0  0  0  0  0
    5.7498   -2.0173    0.3294 H   0  0  0  0  0  0  0  0  0  0  0  0
    6.1594   -1.5324   -1.3090 H   0  0  0  0  0  0  0  0  0  0  0  0
    8.0691    2.6757   -0.8167 H   0  0  0  0  0  0  0  0  0  0  0  0
    7.2245    3.6021    1.3523 H   0  0  0  0  0  0  0  0  0  0  0  0
   -0.4422   -2.2222    0.6613 H   0  0  0  0  0  0  0  0  0  0  0  0
   -0.1040   -0.5364    1.1069 H   0  0  0  0  0  0  0  0  0  0  0  0
   -7.7274    1.1214   -0.0023 H   0  0  0  0  0  0  0  0  0  0  0  0
   -6.3627    1.4079   -1.1156 H   0  0  0  0  0  0  0  0  0  0  0  0
   -6.7028    2.5857    0.1939 H   0  0  0  0  0  0  0  0  0  0  0  0
  1  2  1  0
  2  3  2  0
  3  4  1  0
  4  5  1  0
  5  6  2  0
  5  7  1  0
  7  8  1  0
  8  9  1  0
  9 10  1  0
 10 11  2  0
 11 12  1  0
 12 13  2  0
 13 14  1  0
 14 15  2  0
 14 16  1  0
 16 17  1  0
 17 18  1  0
 18 19  2  0
 19 20  1  0
 19 21  1  0
 21 22  2  0
 22 23  1  0
 23 24  1  0
 23 25  2  0
 25 26  1  0
 13 27  1  0
 27 28  2  0
 28 29  1  0
  4 30  2  0
 30 31  1  0
 31 32  1  0
 31  2  1  0
 29  7  1  0
 28 10  1  0
 25 18  1  0
  1 33  1  0
  1 34  1  0
  1 35  1  0
  3 36  1  0
  8 37  1  0
  8 38  1  0
  9 39  1  0
  9 40  1  0
 11 41  1  0
 12 42  1  0
 16 43  1  0
 17 44  1  0
 17 45  1  0
 21 46  1  0
 22 47  1  0
 29 48  1  0
 29 49  1  0
 32 50  1  0
 32 51  1  0
 32 52  1  0
M  END
$$$$
EDS00444974
     RDKit          3D

 49 51  0  0  0  0  0  0  0  0999 V2000
    7.1524    2.5736   -1.2361 C   0  0  0  0  0  0  0  0  0  0  0  0
    6.3671    1.5812   -0.4390 C   0  0  0  0  0  0  0  0  0  0  0  0
    5.6995    1.9693    0.7171 C   0  0  0  0  0  0  0  0  0  0  0  0
    4.9763    1.1119    1.4755 N   0  0  0  0  0  0  0  0  0  0  0  0
    4.9413   -0.1753    1.0392 C   0  0  0  0  0  0  0  0  0  0  0  0
    4.1324   -1.1709    1.8277 C   0  0  0  0  0  0  0  0  0  0  0  0
    2.7858   -1.2985    1.3205 N   0  0  0  0  0  0  0  0  0  0  0  0
    2.4494   -2.1988    0.3352 C   0  0  0  0  0  0  0  0  0  0  0  0
    3.2194   -3.0469   -0.1017 O   0  0  0  0  0  0  0  0  0  0  0  0
    1.0541   -2.0494   -0.1912 C   0  0  0  0  0  0  0  0  0  0  0  0
    0.5874   -2.9175   -1.1658 C   0  0  0  0  0  0  0  0  0  0  0  0
   -0.7093   -2.7377   -1.6325 C   0  0  0  0  0  0  0  0  0  0  0  0
   -1.4908   -1.6964   -1.1211 C   0  0  0  0  0  0  0  0  0  0  0  0
   -0.9485   -0.8749   -0.1256 C   0  0  0  0  0  0  0  0  0  0  0  0
    0.3180   -1.0317    0.3372 N   0  0  0  0  0  0  0  0  0  0  0  0
   -1.7512    0.2651    0.4699 C   0  0  0  0  0  0  0  0  0  0  0  0
   -3.1480    0.3434    0.0302 N   0  0  0  0  0  0  0  0  0  0  0  0
   -3.9642    1.2136    0.7481 C   0  0  0  0  0  0  0  0  0  0  0  0
   -3.5356    1.8209    1.7320 O   0  0  0  0  0  0  0  0  0  0  0  0
   -5.4269    1.3599    0.3164 C   0  0  0  0  0  0  0  0  0  0  0  0
   -6.2004    0.0778    0.6217 C   0  0  0  0  0  0  0  0  0  0  0  0
   -6.0902    2.5418    1.0288 C   0  0  0  0  0  0  0  0  0  0  0  0
   -3.3955   -0.0748   -1.3486 C   0  0  0  0  0  0  0  0  0  0  0  0
   -2.9070   -1.5028   -1.5867 C   0  0  0  0  0  0  0  0  0  0  0  0
    5.5992   -0.5594   -0.1247 C   0  0  0  0  0  0  0  0  0  0  0  0
    6.3257    0.3013   -0.8794 N   0  0  0  0  0  0  0  0  0  0  0  0
    6.4986    3.3757   -1.5922 H   0  0  0  0  0  0  0  0  0  0  0  0
    7.9501    3.0052   -0.6237 H   0  0  0  0  0  0  0  0  0  0  0  0
    7.6123    2.0967   -2.1077 H   0  0  0  0  0  0  0  0  0  0  0  0
    5.7270    2.9942    1.0716 H   0  0  0  0  0  0  0  0  0  0  0  0
    4.6285   -2.1479    1.8305 H   0  0  0  0  0  0  0  0  0  0  0  0
    4.0532   -0.8372    2.8680 H   0  0  0  0  0  0  0  0  0  0  0  0
    2.1165   -0.5548    1.5025 H   0  0  0  0  0  0  0  0  0  0  0  0
    1.2161   -3.7140   -1.5504 H   0  0  0  0  0  0  0  0  0  0  0  0
   -1.1042   -3.4088   -2.3916 H   0  0  0  0  0  0  0  0  0  0  0  0
   -1.2689    1.2106    0.1921 H   0  0  0  0  0  0  0  0  0  0  0  0
   -1.7255    0.1785    1.5627 H   0  0  0  0  0  0  0  0  0  0  0  0
   -5.4616    1.5807   -0.7552 H   0  0  0  0  0  0  0  0  0  0  0  0
   -5.7723   -0.7915    0.1141 H   0  0  0  0  0  0  0  0  0  0  0  0
   -7.2444    0.1688    0.3036 H   0  0  0  0  0  0  0  0  0  0  0  0
   -6.1901   -0.1402    1.6957 H   0  0  0  0  0  0  0  0  0  0  0  0
   -7.1195    2.6776    0.6803 H   0  0  0  0  0  0  0  0  0  0  0  0
   -6.1167    2.3947    2.1143 H   0  0  0  0  0  0  0  0  0  0  0  0
   -5.5430    3.4704    0.8326 H   0  0  0  0  0  0  0  0  0  0  0  0
   -4.4521   -0.0152   -1.6128 H   0  0  0  0  0  0  0  0  0  0  0  0
   -2.8645    0.6325   -1.9984 H   0  0  0  0  0  0  0  0  0  0  0  0
   -3.5451   -2.2066   -1.0381 H   0  0  0  0  0  0  0  0  0  0  0  0
   -2.9904   -1.7336   -2.6550 H   0  0  0  0  0  0  0  0  0  0  0  0
    5.5560   -1.5811   -0.4903 H   0  0  0  0  0  0  0  0  0  0  0  0
  1  2  1  0
  2  3  2  0
  3  4  1  0
  4  5  2  0
  5  6  1  0
  6  7  1  0
  7  8  1  0
  8  9  2  0
  8 10  1  0
 10 11  2  0
 11 12  1  0
 12 13  2  0
 13 14  1  0
 14 15  2  0
 14 16  1  0
 16 17  1  0
 17 18  1  0
 18 19  2  0
 18 20  1  0
 20 21  1  0
 20 22  1  0
 17 23  1  0
 23 24  1  0
  5 25  1  0
 25 26  2  0
 26  2  1  0
 15 10  1  0
 24 13  1  0
  1 27  1  0
  1 28  1  0
  1 29  1  0
  3 30  1  0
  6 31  1  0
  6 32  1  0
  7 33  1  0
 11 34  1  0
 12 35  1  0
 16 36  1  0
 16 37  1  0
 20 38  1  0
 21 39  1  0
 21 40  1  0
 21 41  1  0
 22 42  1  0
 22 43  1  0
 22 44  1  0
 23 45  1  0
 23 46  1  0
 24 47  1  0
 24 48  1  0
 25 49  1  0
M  END
$$$$
EDS00492986
     RDKit          3D

 73 76  0  0  0  0  0  0  0  0999 V2000
   11.7421    0.6958   -2.0619 C   0  0  0  0  0  0  0  0  0  0  0  0
   10.6809    0.3683   -3.0948 C   0  0  0  0  0  0  0  0  0  0  0  0
    9.3743    0.5225   -2.5242 O   0  0  0  0  0  0  0  0  0  0  0  0
    8.8586   -0.5750   -1.9021 C   0  0  0  0  0  0  0  0  0  0  0  0
    9.4474   -1.6445   -1.8047 O   0  0  0  0  0  0  0  0  0  0  0  0
    7.5957   -0.3329   -1.3904 N   0  0  0  0  0  0  0  0  0  0  0  0
    6.8998    0.9249   -1.6323 C   0  0  0  0  0  0  0  0  0  0  0  0
    5.4735    0.9249   -1.0985 C   0  0  0  0  0  0  0  0  0  0  0  0
    5.4525    0.4477    0.3526 C   0  0  0  0  0  0  0  0  0  0  0  0
    4.0883    0.4060    0.8522 N   0  0  0  0  0  0  0  0  0  0  0  0
    3.7824    0.4667    2.1969 C   0  0  0  0  0  0  0  0  0  0  0  0
    4.6100    0.6434    3.0825 O   0  0  0  0  0  0  0  0  0  0  0  0
    2.3255    0.2917    2.5039 C   0  0  0  0  0  0  0  0  0  0  0  0
    1.8815    0.3767    3.8140 C   0  0  0  0  0  0  0  0  0  0  0  0
    0.5209    0.2246    4.0523 C   0  0  0  0  0  0  0  0  0  0  0  0
   -0.3496    0.0019    2.9801 C   0  0  0  0  0  0  0  0  0  0  0  0
    0.1838   -0.0947    1.6896 C   0  0  0  0  0  0  0  0  0  0  0  0
    1.5097    0.0561    1.4365 N   0  0  0  0  0  0  0  0  0  0  0  0
   -0.7101   -0.3486    0.4919 C   0  0  0  0  0  0  0  0  0  0  0  0
   -2.1273   -0.5636    0.7952 N   0  0  0  0  0  0  0  0  0  0  0  0
   -2.9177   -1.0155   -0.2584 C   0  0  0  0  0  0  0  0  0  0  0  0
   -2.4248   -1.3703   -1.3293 O   0  0  0  0  0  0  0  0  0  0  0  0
   -4.4193   -1.0772   -0.0160 C   0  0  0  0  0  0  0  0  0  0  0  0
   -5.1820   -1.6055   -1.2352 C   0  0  0  0  0  0  0  0  0  0  0  0
   -6.6806   -1.7585   -0.9758 C   0  0  0  0  0  0  0  0  0  0  0  0
   -7.4326   -0.4363   -0.8863 C   0  0  0  0  0  0  0  0  0  0  0  0
   -6.8683    0.6450   -1.0040 O   0  0  0  0  0  0  0  0  0  0  0  0
   -8.7834   -0.6429   -0.6526 N   0  0  0  0  0  0  0  0  0  0  0  0
   -9.7925    0.3329   -0.5136 C   0  0  0  0  0  0  0  0  0  0  0  0
   -9.5706    1.7077   -0.6109 C   0  0  0  0  0  0  0  0  0  0  0  0
  -10.6295    2.6094   -0.4609 C   0  0  0  0  0  0  0  0  0  0  0  0
  -11.9186    2.1445   -0.2124 C   0  0  0  0  0  0  0  0  0  0  0  0
  -12.1516    0.7759   -0.1141 C   0  0  0  0  0  0  0  0  0  0  0  0
  -11.0939   -0.1249   -0.2653 C   0  0  0  0  0  0  0  0  0  0  0  0
   -2.6461    0.1332    1.9704 C   0  0  0  0  0  0  0  0  0  0  0  0
   -1.8215   -0.1897    3.2162 C   0  0  0  0  0  0  0  0  0  0  0  0
    6.1645   -0.9034    0.5412 C   0  0  0  0  0  0  0  0  0  0  0  0
    6.8657   -1.3986   -0.7212 C   0  0  0  0  0  0  0  0  0  0  0  0
   12.7424    0.6242   -2.4979 H   0  0  0  0  0  0  0  0  0  0  0  0
   11.5979    1.7092   -1.6723 H   0  0  0  0  0  0  0  0  0  0  0  0
   11.6828    0.0152   -1.2068 H   0  0  0  0  0  0  0  0  0  0  0  0
   10.7495    1.0736   -3.9294 H   0  0  0  0  0  0  0  0  0  0  0  0
   10.8221   -0.6356   -3.5116 H   0  0  0  0  0  0  0  0  0  0  0  0
    6.8949    1.1208   -2.7106 H   0  0  0  0  0  0  0  0  0  0  0  0
    7.4835    1.7219   -1.1564 H   0  0  0  0  0  0  0  0  0  0  0  0
    4.8436    0.2717   -1.7164 H   0  0  0  0  0  0  0  0  0  0  0  0
    5.0453    1.9310   -1.1793 H   0  0  0  0  0  0  0  0  0  0  0  0
    5.9852    1.1908    0.9618 H   0  0  0  0  0  0  0  0  0  0  0  0
    3.3181    0.1402    0.2416 H   0  0  0  0  0  0  0  0  0  0  0  0
    2.5768    0.5586    4.6273 H   0  0  0  0  0  0  0  0  0  0  0  0
    0.1452    0.2825    5.0712 H   0  0  0  0  0  0  0  0  0  0  0  0
   -0.6516    0.5228   -0.1716 H   0  0  0  0  0  0  0  0  0  0  0  0
   -0.3262   -1.2166   -0.0564 H   0  0  0  0  0  0  0  0  0  0  0  0
   -4.6018   -1.7366    0.8405 H   0  0  0  0  0  0  0  0  0  0  0  0
   -4.7678   -0.0684    0.2269 H   0  0  0  0  0  0  0  0  0  0  0  0
   -4.7792   -2.5888   -1.5098 H   0  0  0  0  0  0  0  0  0  0  0  0
   -5.0113   -0.9467   -2.0962 H   0  0  0  0  0  0  0  0  0  0  0  0
   -6.8471   -2.3229   -0.0506 H   0  0  0  0  0  0  0  0  0  0  0  0
   -7.1204   -2.3292   -1.8034 H   0  0  0  0  0  0  0  0  0  0  0  0
   -9.0897   -1.6046   -0.5761 H   0  0  0  0  0  0  0  0  0  0  0  0
   -8.5846    2.1156   -0.8076 H   0  0  0  0  0  0  0  0  0  0  0  0
  -10.4413    3.6773   -0.5416 H   0  0  0  0  0  0  0  0  0  0  0  0
  -12.7385    2.8485   -0.0978 H   0  0  0  0  0  0  0  0  0  0  0  0
  -13.1563    0.4087    0.0792 H   0  0  0  0  0  0  0  0  0  0  0  0
  -11.3061   -1.1878   -0.1853 H   0  0  0  0  0  0  0  0  0  0  0  0
   -2.6150    1.2075    1.7484 H   0  0  0  0  0  0  0  0  0  0  0  0
   -3.6886   -0.1284    2.1647 H   0  0  0  0  0  0  0  0  0  0  0  0
   -1.9868   -1.2346    3.5082 H   0  0  0  0  0  0  0  0  0  0  0  0
   -2.1609    0.4481    4.0414 H   0  0  0  0  0  0  0  0  0  0  0  0
    5.4719   -1.6804    0.8894 H   0  0  0  0  0  0  0  0  0  0  0  0
    6.9124   -0.7868    1.3369 H   0  0  0  0  0  0  0  0  0  0  0  0
    7.5323   -2.2301   -0.4683 H   0  0  0  0  0  0  0  0  0  0  0  0
    6.1319   -1.7882   -1.4373 H   0  0  0  0  0  0  0  0  0  0  0  0
  1  2  1  0
  2  3  1  0
  3  4  1  0
  4  5  2  0
  4  6  1  0
  6  7  1  0
  7  8  1  0
  8  9  1  0
  9 10  1  0
 10 11  1  0
 11 12  2  0
 11 13  1  0
 13 14  2  0
 14 15  1  0
 15 16  2  0
 16 17  1  0
 17 18  2  0
 17 19  1  0
 19 20  1  0
 20 21  1  0
 21 22  2  0
 21 23  1  0
 23 24  1  0
 24 25  1  0
 25 26  1  0
 26 27  2  0
 26 28  1  0
 28 29  1  0
 29 30  2  0
 30 31  1  0
 31 32  2  0
 32 33  1  0
 33 34  2  0
 20 35  1  0
 35 36  1  0
  9 37  1  0
 37 38  1  0
 38  6  1  0
 18 13  1  0
 34 29  1  0
 36 16  1  0
  1 39  1  0
  1 40  1  0
  1 41  1  0
  2 42  1  0
  2 43  1  0
  7 44  1  0
  7 45  1  0
  8 46  1  0
  8 47  1  0
  9 48  1  0
 10 49  1  0
 14 50  1  0
 15 51  1  0
 19 52  1  0
 19 53  1  0
 23 54  1  0
 23 55  1  0
 24 56  1  0
 24 57  1  0
 25 58  1  0
 25 59  1  0
 28 60  1  0
 30 61  1  0
 31 62  1  0
 32 63  1  0
 33 64  1  0
 34 65  1  0
 35 66  1  0
 35 67  1  0
 36 68  1  0
 36 69  1  0
 37 70  1  0
 37 71  1  0
 38 72  1  0
 38 73  1  0
M  END
$$$$
EDS00459442
     RDKit          3D

 55 58  0  0  0  0  0  0  0  0999 V2000
    6.8035    1.1439   -2.7766 C   0  0  0  0  0  0  0  0  0  0  0  0
    6.2216    0.8840   -1.4445 C   0  0  0  0  0  0  0  0  0  0  0  0
    6.1047   -0.2441   -0.6642 C   0  0  0  0  0  0  0  0  0  0  0  0
    5.4394    0.1504    0.5322 C   0  0  0  0  0  0  0  0  0  0  0  0
    5.0875   -0.7157    1.6899 C   0  0  0  0  0  0  0  0  0  0  0  0
    3.7229   -1.1386    1.5383 N   0  0  0  0  0  0  0  0  0  0  0  0
    3.3723   -2.3178    0.9178 C   0  0  0  0  0  0  0  0  0  0  0  0
    4.1755   -3.1634    0.5416 O   0  0  0  0  0  0  0  0  0  0  0  0
    1.8963   -2.4906    0.7225 C   0  0  0  0  0  0  0  0  0  0  0  0
    1.4071   -3.6384    0.1149 C   0  0  0  0  0  0  0  0  0  0  0  0
    0.0317   -3.7556   -0.0505 C   0  0  0  0  0  0  0  0  0  0  0  0
   -0.7999   -2.7211    0.3830 C   0  0  0  0  0  0  0  0  0  0  0  0
   -0.2273   -1.6008    0.9912 C   0  0  0  0  0  0  0  0  0  0  0  0
    1.1102   -1.4705    1.1712 N   0  0  0  0  0  0  0  0  0  0  0  0
   -1.1225   -0.5083    1.5378 C   0  0  0  0  0  0  0  0  0  0  0  0
   -2.4218   -0.3625    0.8788 N   0  0  0  0  0  0  0  0  0  0  0  0
   -3.1277    0.8153    1.1589 C   0  0  0  0  0  0  0  0  0  0  0  0
   -2.7728    1.5396    2.0932 O   0  0  0  0  0  0  0  0  0  0  0  0
   -4.3007    1.2011    0.3398 C   0  0  0  0  0  0  0  0  0  0  0  0
   -5.2646    2.1831    0.7091 C   0  0  0  0  0  0  0  0  0  0  0  0
   -6.1550    2.2660   -0.3386 C   0  0  0  0  0  0  0  0  0  0  0  0
   -7.3681    3.1033   -0.5106 C   0  0  0  0  0  0  0  0  0  0  0  0
   -5.6871    1.3819   -1.2743 N   0  0  0  0  0  0  0  0  0  0  0  0
   -6.2470    1.0902   -2.5736 C   0  0  0  0  0  0  0  0  0  0  0  0
   -4.5801    0.7190   -0.8865 N   0  0  0  0  0  0  0  0  0  0  0  0
   -2.8625   -1.3996   -0.0581 C   0  0  0  0  0  0  0  0  0  0  0  0
   -2.2926   -2.7860    0.2520 C   0  0  0  0  0  0  0  0  0  0  0  0
    5.1775    1.5063    0.3876 C   0  0  0  0  0  0  0  0  0  0  0  0
    4.5014    2.4957    1.2654 C   0  0  0  0  0  0  0  0  0  0  0  0
    4.0392    3.5827    0.5950 F   0  0  0  0  0  0  0  0  0  0  0  0
    5.3357    2.9526    2.2371 F   0  0  0  0  0  0  0  0  0  0  0  0
    3.4323    1.9476    1.9075 F   0  0  0  0  0  0  0  0  0  0  0  0
    5.6647    1.9519   -0.8107 O   0  0  0  0  0  0  0  0  0  0  0  0
    7.5510    1.9404   -2.7188 H   0  0  0  0  0  0  0  0  0  0  0  0
    6.0243    1.4500   -3.4825 H   0  0  0  0  0  0  0  0  0  0  0  0
    7.2913    0.2477   -3.1742 H   0  0  0  0  0  0  0  0  0  0  0  0
    6.4493   -1.2383   -0.9198 H   0  0  0  0  0  0  0  0  0  0  0  0
    5.7518   -1.5853    1.7453 H   0  0  0  0  0  0  0  0  0  0  0  0
    5.1645   -0.1627    2.6320 H   0  0  0  0  0  0  0  0  0  0  0  0
    2.9624   -0.4912    1.7316 H   0  0  0  0  0  0  0  0  0  0  0  0
    2.0802   -4.4213   -0.2197 H   0  0  0  0  0  0  0  0  0  0  0  0
   -0.3818   -4.6457   -0.5186 H   0  0  0  0  0  0  0  0  0  0  0  0
   -1.3145   -0.7140    2.5995 H   0  0  0  0  0  0  0  0  0  0  0  0
   -0.5918    0.4513    1.4745 H   0  0  0  0  0  0  0  0  0  0  0  0
   -5.2865    2.7493    1.6315 H   0  0  0  0  0  0  0  0  0  0  0  0
   -7.6051    3.6423    0.4138 H   0  0  0  0  0  0  0  0  0  0  0  0
   -7.2174    3.8450   -1.3029 H   0  0  0  0  0  0  0  0  0  0  0  0
   -8.2355    2.4859   -0.7663 H   0  0  0  0  0  0  0  0  0  0  0  0
   -6.8538    1.9358   -2.9140 H   0  0  0  0  0  0  0  0  0  0  0  0
   -6.8629    0.1886   -2.4804 H   0  0  0  0  0  0  0  0  0  0  0  0
   -5.4265    0.9232   -3.2834 H   0  0  0  0  0  0  0  0  0  0  0  0
   -2.5468   -1.0814   -1.0600 H   0  0  0  0  0  0  0  0  0  0  0  0
   -3.9536   -1.4765   -0.0405 H   0  0  0  0  0  0  0  0  0  0  0  0
   -2.5833   -3.4798   -0.5465 H   0  0  0  0  0  0  0  0  0  0  0  0
   -2.7089   -3.1651    1.1943 H   0  0  0  0  0  0  0  0  0  0  0  0
  1  2  1  0
  2  3  2  0
  3  4  1  0
  4  5  1  0
  5  6  1  0
  6  7  1  0
  7  8  2  0
  7  9  1  0
  9 10  2  0
 10 11  1  0
 11 12  2  0
 12 13  1  0
 13 14  2  0
 13 15  1  0
 15 16  1  0
 16 17  1  0
 17 18  2  0
 17 19  1  0
 19 20  1  0
 20 21  2  0
 21 22  1  0
 21 23  1  0
 23 24  1  0
 23 25  1  0
 16 26  1  0
 26 27  1  0
  4 28  2  0
 28 29  1  0
 29 30  1  0
 29 31  1  0
 29 32  1  0
 28 33  1  0
 33  2  1  0
 14  9  1  0
 25 19  2  0
 27 12  1  0
  1 34  1  0
  1 35  1  0
  1 36  1  0
  3 37  1  0
  5 38  1  0
  5 39  1  0
  6 40  1  0
 10 41  1  0
 11 42  1  0
 15 43  1  0
 15 44  1  0
 20 45  1  0
 22 46  1  0
 22 47  1  0
 22 48  1  0
 24 49  1  0
 24 50  1  0
 24 51  1  0
 26 52  1  0
 26 53  1  0
 27 54  1  0
 27 55  1  0
M  END
$$$$
EDS00490706
     RDKit          3D

 59 63  0  0  0  0  0  0  0  0999 V2000
   -3.8972    1.7730   -2.3844 C   0  0  0  0  0  0  0  0  0  0  0  0
   -4.1444    2.3854   -1.1198 O   0  0  0  0  0  0  0  0  0  0  0  0
   -4.4432    1.4448   -0.1618 C   0  0  0  0  0  0  0  0  0  0  0  0
   -3.4268    0.7685    0.5252 C   0  0  0  0  0  0  0  0  0  0  0  0
   -1.9994    1.0356    0.2574 C   0  0  0  0  0  0  0  0  0  0  0  0
   -1.5455    2.1376    0.5505 O   0  0  0  0  0  0  0  0  0  0  0  0
   -1.2192    0.0013   -0.2632 N   0  0  0  0  0  0  0  0  0  0  0  0
   -1.7563   -1.1466   -0.9929 C   0  0  0  0  0  0  0  0  0  0  0  0
   -0.9448   -2.4054   -0.6953 C   0  0  0  0  0  0  0  0  0  0  0  0
    0.5308   -2.1742   -0.8790 C   0  0  0  0  0  0  0  0  0  0  0  0
    1.3957   -3.2505   -1.1030 C   0  0  0  0  0  0  0  0  0  0  0  0
    2.7596   -3.0201   -1.2385 C   0  0  0  0  0  0  0  0  0  0  0  0
    3.2131   -1.7140   -1.1366 C   0  0  0  0  0  0  0  0  0  0  0  0
    4.6774   -1.4194   -1.2704 C   0  0  0  0  0  0  0  0  0  0  0  0
    5.4947   -2.3109   -1.4701 O   0  0  0  0  0  0  0  0  0  0  0  0
    4.9969   -0.0862   -1.1389 N   0  0  0  0  0  0  0  0  0  0  0  0
    6.3545    0.3855   -1.0434 C   0  0  0  0  0  0  0  0  0  0  0  0
    6.7519    0.5925    0.3950 C   0  0  0  0  0  0  0  0  0  0  0  0
    6.6267    1.8512    0.9998 C   0  0  0  0  0  0  0  0  0  0  0  0
    6.9758    2.0298    2.3396 C   0  0  0  0  0  0  0  0  0  0  0  0
    7.4455    0.9524    3.0889 C   0  0  0  0  0  0  0  0  0  0  0  0
    7.5634   -0.3057    2.5013 C   0  0  0  0  0  0  0  0  0  0  0  0
    7.2154   -0.4862    1.1621 C   0  0  0  0  0  0  0  0  0  0  0  0
    2.4015   -0.6425   -0.9083 N   0  0  0  0  0  0  0  0  0  0  0  0
    1.0734   -0.8866   -0.7711 C   0  0  0  0  0  0  0  0  0  0  0  0
    0.1857    0.3176   -0.5230 C   0  0  0  0  0  0  0  0  0  0  0  0
   -3.7437   -0.1506    1.5302 C   0  0  0  0  0  0  0  0  0  0  0  0
   -5.0791   -0.4073    1.8387 C   0  0  0  0  0  0  0  0  0  0  0  0
   -6.1136    0.2652    1.1687 C   0  0  0  0  0  0  0  0  0  0  0  0
   -7.4563    0.0132    1.4948 C   0  0  0  0  0  0  0  0  0  0  0  0
   -8.4905    0.6903    0.8482 C   0  0  0  0  0  0  0  0  0  0  0  0
   -8.1965    1.6323   -0.1302 C   0  0  0  0  0  0  0  0  0  0  0  0
   -6.8673    1.8933   -0.4671 C   0  0  0  0  0  0  0  0  0  0  0  0
   -5.8020    1.2156    0.1640 C   0  0  0  0  0  0  0  0  0  0  0  0
   -2.8736    1.3909   -2.4318 H   0  0  0  0  0  0  0  0  0  0  0  0
   -4.6112    0.9713   -2.6055 H   0  0  0  0  0  0  0  0  0  0  0  0
   -4.0044    2.5425   -3.1550 H   0  0  0  0  0  0  0  0  0  0  0  0
   -1.7064   -0.8986   -2.0609 H   0  0  0  0  0  0  0  0  0  0  0  0
   -2.8086   -1.3248   -0.7615 H   0  0  0  0  0  0  0  0  0  0  0  0
   -1.1147   -2.7173    0.3426 H   0  0  0  0  0  0  0  0  0  0  0  0
   -1.2871   -3.2133   -1.3521 H   0  0  0  0  0  0  0  0  0  0  0  0
    1.0142   -4.2665   -1.1704 H   0  0  0  0  0  0  0  0  0  0  0  0
    3.4516   -3.8373   -1.4142 H   0  0  0  0  0  0  0  0  0  0  0  0
    4.2364    0.5246   -0.8547 H   0  0  0  0  0  0  0  0  0  0  0  0
    6.4124    1.3304   -1.5948 H   0  0  0  0  0  0  0  0  0  0  0  0
    7.0409   -0.3168   -1.5298 H   0  0  0  0  0  0  0  0  0  0  0  0
    6.2544    2.6999    0.4309 H   0  0  0  0  0  0  0  0  0  0  0  0
    6.8774    3.0092    2.8003 H   0  0  0  0  0  0  0  0  0  0  0  0
    7.7145    1.0920    4.1324 H   0  0  0  0  0  0  0  0  0  0  0  0
    7.9219   -1.1487    3.0858 H   0  0  0  0  0  0  0  0  0  0  0  0
    7.2992   -1.4754    0.7145 H   0  0  0  0  0  0  0  0  0  0  0  0
    0.5876    0.8867    0.3235 H   0  0  0  0  0  0  0  0  0  0  0  0
    0.2154    0.9617   -1.4105 H   0  0  0  0  0  0  0  0  0  0  0  0
   -2.9539   -0.6544    2.0822 H   0  0  0  0  0  0  0  0  0  0  0  0
   -5.3080   -1.1247    2.6246 H   0  0  0  0  0  0  0  0  0  0  0  0
   -7.7098   -0.7120    2.2654 H   0  0  0  0  0  0  0  0  0  0  0  0
   -9.5243    0.4875    1.1156 H   0  0  0  0  0  0  0  0  0  0  0  0
   -8.9983    2.1704   -0.6291 H   0  0  0  0  0  0  0  0  0  0  0  0
   -6.6615    2.6439   -1.2280 H   0  0  0  0  0  0  0  0  0  0  0  0
  1  2  1  0
  2  3  1  0
  3  4  2  0
  4  5  1  0
  5  6  2  0
  5  7  1  0
  7  8  1  0
  8  9  1  0
  9 10  1  0
 10 11  2  0
 11 12  1  0
 12 13  2  0
 13 14  1  0
 14 15  2  0
 14 16  1  0
 16 17  1  0
 17 18  1  0
 18 19  2  0
 19 20  1  0
 20 21  2  0
 21 22  1  0
 22 23  2  0
 13 24  1  0
 24 25  2  0
 25 26  1  0
  4 27  1  0
 27 28  2  0
 28 29  1  0
 29 30  2  0
 30 31  1  0
 31 32  2  0
 32 33  1  0
 33 34  2  0
 34  3  1  0
 26  7  1  0
 34 29  1  0
 25 10  1  0
 23 18  1  0
  1 35  1  0
  1 36  1  0
  1 37  1  0
  8 38  1  0
  8 39  1  0
  9 40  1  0
  9 41  1  0
 11 42  1  0
 12 43  1  0
 16 44  1  0
 17 45  1  0
 17 46  1  0
 19 47  1  0
 20 48  1  0
 21 49  1  0
 22 50  1  0
 23 51  1  0
 26 52  1  0
 26 53  1  0
 27 54  1  0
 28 55  1  0
 30 56  1  0
 31 57  1  0
 32 58  1  0
 33 59  1  0
M  END
$$$$
EDS00492874
     RDKit          3D

 70 73  0  0  0  0  0  0  0  0999 V2000
   -6.5969    0.3994   -0.1717 C   0  0  0  0  0  0  0  0  0  0  0  0
   -5.5765    1.5420    0.0414 C   0  0  0  0  0  0  0  0  0  0  0  0
   -4.6780    1.5870   -1.2192 C   0  0  0  0  0  0  0  0  0  0  0  0
   -4.6789    1.2698    1.2889 C   0  0  0  0  0  0  0  0  0  0  0  0
   -3.8597    0.0780    1.1962 N   0  0  0  0  0  0  0  0  0  0  0  0
   -4.2411   -1.1503    1.6938 C   0  0  0  0  0  0  0  0  0  0  0  0
   -5.3017   -1.3617    2.2691 O   0  0  0  0  0  0  0  0  0  0  0  0
   -3.2362   -2.2398    1.4668 C   0  0  0  0  0  0  0  0  0  0  0  0
   -3.5148   -3.5341    1.8781 C   0  0  0  0  0  0  0  0  0  0  0  0
   -2.5560   -4.5131    1.6460 C   0  0  0  0  0  0  0  0  0  0  0  0
   -1.3585   -4.1714    1.0095 C   0  0  0  0  0  0  0  0  0  0  0  0
   -1.1502   -2.8365    0.6432 C   0  0  0  0  0  0  0  0  0  0  0  0
   -2.0773   -1.8671    0.8499 N   0  0  0  0  0  0  0  0  0  0  0  0
    0.1386   -2.3994   -0.0216 C   0  0  0  0  0  0  0  0  0  0  0  0
    1.1540   -3.4442   -0.1678 N   0  0  0  0  0  0  0  0  0  0  0  0
    2.4690   -3.1688   -0.5398 C   0  0  0  0  0  0  0  0  0  0  0  0
    3.2363   -4.0490   -0.9242 O   0  0  0  0  0  0  0  0  0  0  0  0
    2.9175   -1.7163   -0.4263 C   0  0  0  0  0  0  0  0  0  0  0  0
    4.3776   -1.5135   -0.8307 C   0  0  0  0  0  0  0  0  0  0  0  0
    4.7903   -0.0502   -0.6761 C   0  0  0  0  0  0  0  0  0  0  0  0
    6.2589    0.1862   -1.0015 C   0  0  0  0  0  0  0  0  0  0  0  0
    6.9832   -0.7024   -1.4323 O   0  0  0  0  0  0  0  0  0  0  0  0
    6.6205    1.5017   -0.7516 N   0  0  0  0  0  0  0  0  0  0  0  0
    7.8986    2.0841   -0.8893 C   0  0  0  0  0  0  0  0  0  0  0  0
    9.0340    1.3900   -1.3096 C   0  0  0  0  0  0  0  0  0  0  0  0
   10.2691    2.0418   -1.4044 C   0  0  0  0  0  0  0  0  0  0  0  0
   10.3793    3.3920   -1.0813 C   0  0  0  0  0  0  0  0  0  0  0  0
    9.2527    4.0950   -0.6641 C   0  0  0  0  0  0  0  0  0  0  0  0
    8.0189    3.4435   -0.5690 C   0  0  0  0  0  0  0  0  0  0  0  0
    0.6511   -4.8030   -0.3558 C   0  0  0  0  0  0  0  0  0  0  0  0
   -0.2880   -5.2034    0.7811 C   0  0  0  0  0  0  0  0  0  0  0  0
   -6.3463    2.8588    0.2772 C   0  0  0  0  0  0  0  0  0  0  0  0
   -7.2663    2.9611    1.3362 C   0  0  0  0  0  0  0  0  0  0  0  0
   -7.9567    4.1487    1.5354 C   0  0  0  0  0  0  0  0  0  0  0  0
   -7.8044    5.2430    0.7629 N   0  0  0  0  0  0  0  0  0  0  0  0
   -6.9139    5.1436   -0.2427 C   0  0  0  0  0  0  0  0  0  0  0  0
   -6.1751    3.9990   -0.5186 C   0  0  0  0  0  0  0  0  0  0  0  0
   -7.3035    0.6475   -0.9732 H   0  0  0  0  0  0  0  0  0  0  0  0
   -7.1827    0.1957    0.7323 H   0  0  0  0  0  0  0  0  0  0  0  0
   -6.1019   -0.5363   -0.4544 H   0  0  0  0  0  0  0  0  0  0  0  0
   -4.1888    0.6229   -1.4001 H   0  0  0  0  0  0  0  0  0  0  0  0
   -5.2601    1.8187   -2.1193 H   0  0  0  0  0  0  0  0  0  0  0  0
   -3.8859    2.3384   -1.1219 H   0  0  0  0  0  0  0  0  0  0  0  0
   -5.2846    1.1930    2.2006 H   0  0  0  0  0  0  0  0  0  0  0  0
   -3.9839    2.1067    1.4381 H   0  0  0  0  0  0  0  0  0  0  0  0
   -2.9518    0.1131    0.7395 H   0  0  0  0  0  0  0  0  0  0  0  0
   -4.4539   -3.7747    2.3664 H   0  0  0  0  0  0  0  0  0  0  0  0
   -2.7462   -5.5362    1.9633 H   0  0  0  0  0  0  0  0  0  0  0  0
    0.5529   -1.5666    0.5555 H   0  0  0  0  0  0  0  0  0  0  0  0
   -0.0944   -2.0340   -1.0294 H   0  0  0  0  0  0  0  0  0  0  0  0
    2.2769   -1.1003   -1.0675 H   0  0  0  0  0  0  0  0  0  0  0  0
    2.7894   -1.4012    0.6152 H   0  0  0  0  0  0  0  0  0  0  0  0
    4.5265   -1.8363   -1.8685 H   0  0  0  0  0  0  0  0  0  0  0  0
    5.0263   -2.1505   -0.2159 H   0  0  0  0  0  0  0  0  0  0  0  0
    4.1875    0.5775   -1.3437 H   0  0  0  0  0  0  0  0  0  0  0  0
    4.6123    0.2769    0.3560 H   0  0  0  0  0  0  0  0  0  0  0  0
    5.8907    2.1195   -0.4220 H   0  0  0  0  0  0  0  0  0  0  0  0
    8.9962    0.3367   -1.5691 H   0  0  0  0  0  0  0  0  0  0  0  0
   11.1449    1.4865   -1.7309 H   0  0  0  0  0  0  0  0  0  0  0  0
   11.3420    3.8924   -1.1546 H   0  0  0  0  0  0  0  0  0  0  0  0
    9.3328    5.1490   -0.4112 H   0  0  0  0  0  0  0  0  0  0  0  0
    7.1563    4.0163   -0.2388 H   0  0  0  0  0  0  0  0  0  0  0  0
    0.1288   -4.8256   -1.3217 H   0  0  0  0  0  0  0  0  0  0  0  0
    1.4739   -5.5240   -0.4139 H   0  0  0  0  0  0  0  0  0  0  0  0
   -0.7387   -6.1739    0.5463 H   0  0  0  0  0  0  0  0  0  0  0  0
    0.2821   -5.3112    1.7118 H   0  0  0  0  0  0  0  0  0  0  0  0
   -7.4519    2.1310    2.0142 H   0  0  0  0  0  0  0  0  0  0  0  0
   -8.6753    4.2465    2.3439 H   0  0  0  0  0  0  0  0  0  0  0  0
   -6.8015    6.0379   -0.8485 H   0  0  0  0  0  0  0  0  0  0  0  0
   -5.4876    4.0285   -1.3565 H   0  0  0  0  0  0  0  0  0  0  0  0
  1  2  1  0
  2  3  1  0
  2  4  1  0
  4  5  1  0
  5  6  1  0
  6  7  2  0
  6  8  1  0
  8  9  2  0
  9 10  1  0
 10 11  2  0
 11 12  1  0
 12 13  2  0
 12 14  1  0
 14 15  1  0
 15 16  1  0
 16 17  2  0
 16 18  1  0
 18 19  1  0
 19 20  1  0
 20 21  1  0
 21 22  2  0
 21 23  1  0
 23 24  1  0
 24 25  2  0
 25 26  1  0
 26 27  2  0
 27 28  1  0
 28 29  2  0
 15 30  1  0
 30 31  1  0
  2 32  1  0
 32 33  2  0
 33 34  1  0
 34 35  2  0
 35 36  1  0
 36 37  2  0
 13  8  1  0
 29 24  1  0
 37 32  1  0
 31 11  1  0
  1 38  1  0
  1 39  1  0
  1 40  1  0
  3 41  1  0
  3 42  1  0
  3 43  1  0
  4 44  1  0
  4 45  1  0
  5 46  1  0
  9 47  1  0
 10 48  1  0
 14 49  1  0
 14 50  1  0
 18 51  1  0
 18 52  1  0
 19 53  1  0
 19 54  1  0
 20 55  1  0
 20 56  1  0
 23 57  1  0
 25 58  1  0
 26 59  1  0
 27 60  1  0
 28 61  1  0
 29 62  1  0
 30 63  1  0
 30 64  1  0
 31 65  1  0
 31 66  1  0
 33 67  1  0
 34 68  1  0
 36 69  1  0
 37 70  1  0
M  END
$$$$
EDS00470458
     RDKit          3D

 64 68  0  0  0  0  0  0  0  0999 V2000
    7.5404   -1.1769   -2.6990 C   0  0  0  0  0  0  0  0  0  0  0  0
    6.5511   -1.0357   -1.6850 O   0  0  0  0  0  0  0  0  0  0  0  0
    6.9136   -1.4803   -0.4498 C   0  0  0  0  0  0  0  0  0  0  0  0
    8.2011   -1.7392   -0.0233 C   0  0  0  0  0  0  0  0  0  0  0  0
    8.2480   -2.3125    1.5873 S   0  0  0  0  0  0  0  0  0  0  0  0
    6.5490   -2.2105    1.7268 C   0  0  0  0  0  0  0  0  0  0  0  0
    5.9466   -1.7059    0.5880 C   0  0  0  0  0  0  0  0  0  0  0  0
    4.4998   -1.5452    0.4982 C   0  0  0  0  0  0  0  0  0  0  0  0
    3.7668   -2.5104    0.7042 O   0  0  0  0  0  0  0  0  0  0  0  0
    3.9933   -0.2783    0.2223 N   0  0  0  0  0  0  0  0  0  0  0  0
    4.7627    0.9612    0.1279 C   0  0  0  0  0  0  0  0  0  0  0  0
    4.2705    1.9740    1.1655 C   0  0  0  0  0  0  0  0  0  0  0  0
    2.7693    2.1037    1.1792 C   0  0  0  0  0  0  0  0  0  0  0  0
    2.1611    3.2131    1.7801 C   0  0  0  0  0  0  0  0  0  0  0  0
    0.7744    3.2958    1.8304 C   0  0  0  0  0  0  0  0  0  0  0  0
    0.0415    2.2554    1.2798 C   0  0  0  0  0  0  0  0  0  0  0  0
   -1.4574    2.2878    1.3250 C   0  0  0  0  0  0  0  0  0  0  0  0
   -2.0651    3.2105    1.8543 O   0  0  0  0  0  0  0  0  0  0  0  0
   -2.0565    1.1888    0.7394 N   0  0  0  0  0  0  0  0  0  0  0  0
   -3.4764    0.9185    0.8775 C   0  0  0  0  0  0  0  0  0  0  0  0
   -4.0855    0.0150   -0.2451 C   0  0  0  0  0  0  0  0  0  0  0  0
   -5.5951   -0.1960    0.0684 C   0  0  0  0  0  0  0  0  0  0  0  0
   -6.0015   -0.6460    1.3433 C   0  0  0  0  0  0  0  0  0  0  0  0
   -7.3497   -0.8464    1.6574 C   0  0  0  0  0  0  0  0  0  0  0  0
   -8.3292   -0.6156    0.6998 C   0  0  0  0  0  0  0  0  0  0  0  0
   -7.9577   -0.1958   -0.5724 C   0  0  0  0  0  0  0  0  0  0  0  0
   -6.6079    0.0035   -0.8860 C   0  0  0  0  0  0  0  0  0  0  0  0
   -3.7930    0.6979   -1.6209 C   0  0  0  0  0  0  0  0  0  0  0  0
   -3.5510   -0.2999   -2.7533 C   0  0  0  0  0  0  0  0  0  0  0  0
   -4.3088   -1.4854   -2.5725 O   0  0  0  0  0  0  0  0  0  0  0  0
   -3.9047   -2.2401   -1.4296 C   0  0  0  0  0  0  0  0  0  0  0  0
   -3.4053   -1.3769   -0.2664 C   0  0  0  0  0  0  0  0  0  0  0  0
    0.5971    1.1543    0.6935 N   0  0  0  0  0  0  0  0  0  0  0  0
    1.9524    1.0876    0.6623 C   0  0  0  0  0  0  0  0  0  0  0  0
    2.5574   -0.1366   -0.0012 C   0  0  0  0  0  0  0  0  0  0  0  0
    7.8799   -2.2150   -2.7868 H   0  0  0  0  0  0  0  0  0  0  0  0
    7.0831   -0.8929   -3.6511 H   0  0  0  0  0  0  0  0  0  0  0  0
    8.3830   -0.5008   -2.5211 H   0  0  0  0  0  0  0  0  0  0  0  0
    9.1311   -1.6379   -0.5637 H   0  0  0  0  0  0  0  0  0  0  0  0
    6.0621   -2.5157    2.6442 H   0  0  0  0  0  0  0  0  0  0  0  0
    4.6285    1.3521   -0.8887 H   0  0  0  0  0  0  0  0  0  0  0  0
    5.8306    0.8031    0.2835 H   0  0  0  0  0  0  0  0  0  0  0  0
    4.5878    1.6520    2.1659 H   0  0  0  0  0  0  0  0  0  0  0  0
    4.7328    2.9469    0.9610 H   0  0  0  0  0  0  0  0  0  0  0  0
    2.7616    4.0087    2.2163 H   0  0  0  0  0  0  0  0  0  0  0  0
    0.2783    4.1434    2.2948 H   0  0  0  0  0  0  0  0  0  0  0  0
   -1.4086    0.4370    0.5162 H   0  0  0  0  0  0  0  0  0  0  0  0
   -3.5781    0.4570    1.8655 H   0  0  0  0  0  0  0  0  0  0  0  0
   -4.0121    1.8755    0.9185 H   0  0  0  0  0  0  0  0  0  0  0  0
   -5.2718   -0.8577    2.1209 H   0  0  0  0  0  0  0  0  0  0  0  0
   -7.6297   -1.1849    2.6512 H   0  0  0  0  0  0  0  0  0  0  0  0
   -9.3782   -0.7681    0.9392 H   0  0  0  0  0  0  0  0  0  0  0  0
   -8.7176   -0.0243   -1.3328 H   0  0  0  0  0  0  0  0  0  0  0  0
   -6.3795    0.2979   -1.9073 H   0  0  0  0  0  0  0  0  0  0  0  0
   -2.9027    1.3352   -1.5818 H   0  0  0  0  0  0  0  0  0  0  0  0
   -4.5932    1.3943   -1.8916 H   0  0  0  0  0  0  0  0  0  0  0  0
   -3.8339    0.1496   -3.7099 H   0  0  0  0  0  0  0  0  0  0  0  0
   -2.4883   -0.5603   -2.8245 H   0  0  0  0  0  0  0  0  0  0  0  0
   -4.7691   -2.8357   -1.1169 H   0  0  0  0  0  0  0  0  0  0  0  0
   -3.1258   -2.9474   -1.7350 H   0  0  0  0  0  0  0  0  0  0  0  0
   -2.3226   -1.2521   -0.3953 H   0  0  0  0  0  0  0  0  0  0  0  0
   -3.5251   -1.9233    0.6776 H   0  0  0  0  0  0  0  0  0  0  0  0
    2.0116   -1.0263    0.3313 H   0  0  0  0  0  0  0  0  0  0  0  0
    2.4148   -0.0439   -1.0856 H   0  0  0  0  0  0  0  0  0  0  0  0
  1  2  1  0
  2  3  1  0
  3  4  2  0
  4  5  1  0
  5  6  1  0
  6  7  2  0
  7  8  1  0
  8  9  2  0
  8 10  1  0
 10 11  1  0
 11 12  1  0
 12 13  1  0
 13 14  2  0
 14 15  1  0
 15 16  2  0
 16 17  1  0
 17 18  2  0
 17 19  1  0
 19 20  1  0
 20 21  1  0
 21 22  1  0
 22 23  2  0
 23 24  1  0
 24 25  2  0
 25 26  1  0
 26 27  2  0
 21 28  1  0
 28 29  1  0
 29 30  1  0
 30 31  1  0
 31 32  1  0
 16 33  1  0
 33 34  2  0
 34 35  1  0
  7  3  1  0
 35 10  1  0
 34 13  1  0
 32 21  1  0
 27 22  1  0
  1 36  1  0
  1 37  1  0
  1 38  1  0
  4 39  1  0
  6 40  1  0
 11 41  1  0
 11 42  1  0
 12 43  1  0
 12 44  1  0
 14 45  1  0
 15 46  1  0
 19 47  1  0
 20 48  1  0
 20 49  1  0
 23 50  1  0
 24 51  1  0
 25 52  1  0
 26 53  1  0
 27 54  1  0
 28 55  1  0
 28 56  1  0
 29 57  1  0
 29 58  1  0
 31 59  1  0
 31 60  1  0
 32 61  1  0
 32 62  1  0
 35 63  1  0
 35 64  1  0
M  END
$$$$
EDS00474254
     RDKit          3D

 53 56  0  0  0  0  0  0  0  0999 V2000
   -3.6234   -0.4103   -2.9764 C   0  0  0  0  0  0  0  0  0  0  0  0
   -3.1318    0.0300   -1.7166 O   0  0  0  0  0  0  0  0  0  0  0  0
   -3.9940    0.7387   -0.9230 C   0  0  0  0  0  0  0  0  0  0  0  0
   -5.3815    0.7619   -1.0940 C   0  0  0  0  0  0  0  0  0  0  0  0
   -6.1925    1.5197   -0.2394 C   0  0  0  0  0  0  0  0  0  0  0  0
   -5.6332    2.2801    0.7928 C   0  0  0  0  0  0  0  0  0  0  0  0
   -6.5067    3.0804    1.7125 C   0  0  0  0  0  0  0  0  0  0  0  0
   -4.2490    2.2418    0.9843 C   0  0  0  0  0  0  0  0  0  0  0  0
   -3.4389    1.4640    0.1435 C   0  0  0  0  0  0  0  0  0  0  0  0
   -1.9801    1.5012    0.3904 C   0  0  0  0  0  0  0  0  0  0  0  0
   -1.4237    2.5973    0.3431 O   0  0  0  0  0  0  0  0  0  0  0  0
   -1.3064    0.3211    0.6942 N   0  0  0  0  0  0  0  0  0  0  0  0
   -1.9504   -0.8910    1.1939 C   0  0  0  0  0  0  0  0  0  0  0  0
   -1.3067   -2.1332    0.5825 C   0  0  0  0  0  0  0  0  0  0  0  0
    0.1923   -2.1096    0.7232 C   0  0  0  0  0  0  0  0  0  0  0  0
    0.9306   -3.2960    0.6587 C   0  0  0  0  0  0  0  0  0  0  0  0
    2.3160   -3.2500    0.7591 C   0  0  0  0  0  0  0  0  0  0  0  0
    2.9169   -2.0103    0.9134 C   0  0  0  0  0  0  0  0  0  0  0  0
    4.4093   -1.9111    1.0191 C   0  0  0  0  0  0  0  0  0  0  0  0
    5.1245   -2.9057    0.9793 O   0  0  0  0  0  0  0  0  0  0  0  0
    4.8783   -0.6227    1.1504 N   0  0  0  0  0  0  0  0  0  0  0  0
    6.2768   -0.2928    1.0827 C   0  0  0  0  0  0  0  0  0  0  0  0
    6.5888    0.1461   -0.3132 C   0  0  0  0  0  0  0  0  0  0  0  0
    6.5849    1.5083   -0.7653 C   0  0  0  0  0  0  0  0  0  0  0  0
    6.9069    1.6259   -2.0992 C   0  0  0  0  0  0  0  0  0  0  0  0
    7.2152    0.1081   -2.8202 S   0  0  0  0  0  0  0  0  0  0  0  0
    6.9173   -0.7103   -1.3498 C   0  0  0  0  0  0  0  0  0  0  0  0
    2.2317   -0.8328    0.9700 N   0  0  0  0  0  0  0  0  0  0  0  0
    0.8797   -0.8959    0.8625 C   0  0  0  0  0  0  0  0  0  0  0  0
    0.1315    0.4220    0.9314 C   0  0  0  0  0  0  0  0  0  0  0  0
   -4.0572    0.4163   -3.5492 H   0  0  0  0  0  0  0  0  0  0  0  0
   -2.7757   -0.8023   -3.5466 H   0  0  0  0  0  0  0  0  0  0  0  0
   -4.3434   -1.2249   -2.8496 H   0  0  0  0  0  0  0  0  0  0  0  0
   -5.8687    0.1968   -1.8822 H   0  0  0  0  0  0  0  0  0  0  0  0
   -7.2701    1.5187   -0.3945 H   0  0  0  0  0  0  0  0  0  0  0  0
   -7.4055    3.4288    1.1929 H   0  0  0  0  0  0  0  0  0  0  0  0
   -5.9791    3.9675    2.0784 H   0  0  0  0  0  0  0  0  0  0  0  0
   -6.8076    2.4689    2.5687 H   0  0  0  0  0  0  0  0  0  0  0  0
   -3.7880    2.8214    1.7822 H   0  0  0  0  0  0  0  0  0  0  0  0
   -1.8272   -0.8899    2.2848 H   0  0  0  0  0  0  0  0  0  0  0  0
   -3.0253   -0.8985    1.0034 H   0  0  0  0  0  0  0  0  0  0  0  0
   -1.5482   -2.1891   -0.4859 H   0  0  0  0  0  0  0  0  0  0  0  0
   -1.7190   -3.0243    1.0697 H   0  0  0  0  0  0  0  0  0  0  0  0
    0.4329   -4.2539    0.5283 H   0  0  0  0  0  0  0  0  0  0  0  0
    2.9118   -4.1557    0.7130 H   0  0  0  0  0  0  0  0  0  0  0  0
    4.1840    0.1126    1.0516 H   0  0  0  0  0  0  0  0  0  0  0  0
    6.4605    0.5180    1.7949 H   0  0  0  0  0  0  0  0  0  0  0  0
    6.8913   -1.1521    1.3711 H   0  0  0  0  0  0  0  0  0  0  0  0
    6.3533    2.3613   -0.1386 H   0  0  0  0  0  0  0  0  0  0  0  0
    6.9742    2.5307   -2.6874 H   0  0  0  0  0  0  0  0  0  0  0  0
    6.9888   -1.7898   -1.3085 H   0  0  0  0  0  0  0  0  0  0  0  0
    0.5691    1.1169    0.2052 H   0  0  0  0  0  0  0  0  0  0  0  0
    0.2666    0.8478    1.9332 H   0  0  0  0  0  0  0  0  0  0  0  0
  1  2  1  0
  2  3  1  0
  3  4  2  0
  4  5  1  0
  5  6  2  0
  6  7  1  0
  6  8  1  0
  8  9  2  0
  9 10  1  0
 10 11  2  0
 10 12  1  0
 12 13  1  0
 13 14  1  0
 14 15  1  0
 15 16  2  0
 16 17  1  0
 17 18  2  0
 18 19  1  0
 19 20  2  0
 19 21  1  0
 21 22  1  0
 22 23  1  0
 23 24  1  0
 24 25  2  0
 25 26  1  0
 26 27  1  0
 18 28  1  0
 28 29  2  0
 29 30  1  0
  9  3  1  0
 30 12  1  0
 29 15  1  0
 27 23  2  0
  1 31  1  0
  1 32  1  0
  1 33  1  0
  4 34  1  0
  5 35  1  0
  7 36  1  0
  7 37  1  0
  7 38  1  0
  8 39  1  0
 13 40  1  0
 13 41  1  0
 14 42  1  0
 14 43  1  0
 16 44  1  0
 17 45  1  0
 21 46  1  0
 22 47  1  0
 22 48  1  0
 24 49  1  0
 25 50  1  0
 27 51  1  0
 30 52  1  0
 30 53  1  0
M  END
$$$$
EDS00474362
     RDKit          3D

 62 65  0  0  0  0  0  0  0  0999 V2000
   -2.9225    1.5983    2.2898 C   0  0  0  0  0  0  0  0  0  0  0  0
   -3.5432    1.3748    1.0306 O   0  0  0  0  0  0  0  0  0  0  0  0
   -4.1901    0.1829    0.8473 C   0  0  0  0  0  0  0  0  0  0  0  0
   -4.4586   -0.7426    1.8585 C   0  0  0  0  0  0  0  0  0  0  0  0
   -5.1457   -1.9301    1.5721 C   0  0  0  0  0  0  0  0  0  0  0  0
   -5.5943   -2.2073    0.2754 C   0  0  0  0  0  0  0  0  0  0  0  0
   -6.3174   -3.4870   -0.0227 C   0  0  0  0  0  0  0  0  0  0  0  0
   -5.3173   -1.2922   -0.7439 C   0  0  0  0  0  0  0  0  0  0  0  0
   -4.6145   -0.1141   -0.4570 C   0  0  0  0  0  0  0  0  0  0  0  0
   -4.3731    0.8215   -1.5727 C   0  0  0  0  0  0  0  0  0  0  0  0
   -5.3401    1.4423   -2.0095 O   0  0  0  0  0  0  0  0  0  0  0  0
   -3.0917    0.9259   -2.1062 N   0  0  0  0  0  0  0  0  0  0  0  0
   -2.8030    2.0417   -2.9960 C   0  0  0  0  0  0  0  0  0  0  0  0
   -2.1250    3.1622   -2.2008 C   0  0  0  0  0  0  0  0  0  0  0  0
   -1.0133    2.6471   -1.3131 C   0  0  0  0  0  0  0  0  0  0  0  0
   -0.0901    3.5369   -0.7559 C   0  0  0  0  0  0  0  0  0  0  0  0
    0.8999    3.0578    0.0940 C   0  0  0  0  0  0  0  0  0  0  0  0
    0.9275    1.6975    0.3626 C   0  0  0  0  0  0  0  0  0  0  0  0
    1.9906    1.1361    1.2584 C   0  0  0  0  0  0  0  0  0  0  0  0
    2.8370    1.8498    1.7844 O   0  0  0  0  0  0  0  0  0  0  0  0
    1.9349   -0.2329    1.4088 N   0  0  0  0  0  0  0  0  0  0  0  0
    2.9767   -0.9891    2.0553 C   0  0  0  0  0  0  0  0  0  0  0  0
    3.9277   -1.5791    1.0429 C   0  0  0  0  0  0  0  0  0  0  0  0
    3.9593   -2.9623    0.8078 C   0  0  0  0  0  0  0  0  0  0  0  0
    4.8283   -3.5058   -0.1420 C   0  0  0  0  0  0  0  0  0  0  0  0
    5.6774   -2.6752   -0.8703 C   0  0  0  0  0  0  0  0  0  0  0  0
    5.6537   -1.2984   -0.6376 C   0  0  0  0  0  0  0  0  0  0  0  0
    6.7088   -0.2170   -1.5721 S   0  0  0  0  0  6  0  0  0  0  0  0
    7.8679    0.3833   -0.3698 C   0  0  0  0  0  0  0  0  0  0  0  0
    7.4454   -1.0296   -2.5229 O   0  0  0  0  0  0  0  0  0  0  0  0
    5.8943    0.8957   -2.0212 O   0  0  0  0  0  0  0  0  0  0  0  0
    4.7833   -0.7463    0.3061 C   0  0  0  0  0  0  0  0  0  0  0  0
    0.0413    0.7970   -0.1506 N   0  0  0  0  0  0  0  0  0  0  0  0
   -0.9236    1.2867   -0.9702 C   0  0  0  0  0  0  0  0  0  0  0  0
   -1.8947    0.2814   -1.5660 C   0  0  0  0  0  0  0  0  0  0  0  0
   -2.2006    0.8083    2.5226 H   0  0  0  0  0  0  0  0  0  0  0  0
   -3.6702    1.6986    3.0829 H   0  0  0  0  0  0  0  0  0  0  0  0
   -2.3735    2.5429    2.2281 H   0  0  0  0  0  0  0  0  0  0  0  0
   -4.1576   -0.5682    2.8866 H   0  0  0  0  0  0  0  0  0  0  0  0
   -5.3415   -2.6348    2.3788 H   0  0  0  0  0  0  0  0  0  0  0  0
   -6.9755   -3.3743   -0.8906 H   0  0  0  0  0  0  0  0  0  0  0  0
   -5.5968   -4.2844   -0.2284 H   0  0  0  0  0  0  0  0  0  0  0  0
   -6.9454   -3.7845    0.8235 H   0  0  0  0  0  0  0  0  0  0  0  0
   -5.6513   -1.4800   -1.7624 H   0  0  0  0  0  0  0  0  0  0  0  0
   -2.1406    1.6743   -3.7898 H   0  0  0  0  0  0  0  0  0  0  0  0
   -3.7123    2.4187   -3.4749 H   0  0  0  0  0  0  0  0  0  0  0  0
   -1.7345    3.9112   -2.8994 H   0  0  0  0  0  0  0  0  0  0  0  0
   -2.8665    3.6524   -1.5569 H   0  0  0  0  0  0  0  0  0  0  0  0
   -0.1400    4.5999   -0.9796 H   0  0  0  0  0  0  0  0  0  0  0  0
    1.6331    3.7276    0.5316 H   0  0  0  0  0  0  0  0  0  0  0  0
    1.2511   -0.7125    0.8296 H   0  0  0  0  0  0  0  0  0  0  0  0
    2.4870   -1.7799    2.6339 H   0  0  0  0  0  0  0  0  0  0  0  0
    3.5323   -0.3598    2.7601 H   0  0  0  0  0  0  0  0  0  0  0  0
    3.2993   -3.6286    1.3591 H   0  0  0  0  0  0  0  0  0  0  0  0
    4.8366   -4.5798   -0.3196 H   0  0  0  0  0  0  0  0  0  0  0  0
    6.3396   -3.1065   -1.6175 H   0  0  0  0  0  0  0  0  0  0  0  0
    7.3338    0.9456    0.3987 H   0  0  0  0  0  0  0  0  0  0  0  0
    8.3997   -0.4645    0.0682 H   0  0  0  0  0  0  0  0  0  0  0  0
    8.5755    1.0412   -0.8809 H   0  0  0  0  0  0  0  0  0  0  0  0
    4.7527    0.3325    0.4613 H   0  0  0  0  0  0  0  0  0  0  0  0
   -1.3930   -0.2155   -2.4055 H   0  0  0  0  0  0  0  0  0  0  0  0
   -2.1374   -0.4899   -0.8321 H   0  0  0  0  0  0  0  0  0  0  0  0
  1  2  1  0
  2  3  1  0
  3  4  2  0
  4  5  1  0
  5  6  2  0
  6  7  1  0
  6  8  1  0
  8  9  2  0
  9 10  1  0
 10 11  2  0
 10 12  1  0
 12 13  1  0
 13 14  1  0
 14 15  1  0
 15 16  2  0
 16 17  1  0
 17 18  2  0
 18 19  1  0
 19 20  2  0
 19 21  1  0
 21 22  1  0
 22 23  1  0
 23 24  2  0
 24 25  1  0
 25 26  2  0
 26 27  1  0
 27 28  1  0
 28 29  1  0
 28 30  2  0
 28 31  2  0
 27 32  2  0
 18 33  1  0
 33 34  2  0
 34 35  1  0
  9  3  1  0
 35 12  1  0
 34 15  1  0
 32 23  1  0
  1 36  1  0
  1 37  1  0
  1 38  1  0
  4 39  1  0
  5 40  1  0
  7 41  1  0
  7 42  1  0
  7 43  1  0
  8 44  1  0
 13 45  1  0
 13 46  1  0
 14 47  1  0
 14 48  1  0
 16 49  1  0
 17 50  1  0
 21 51  1  0
 22 52  1  0
 22 53  1  0
 24 54  1  0
 25 55  1  0
 26 56  1  0
 29 57  1  0
 29 58  1  0
 29 59  1  0
 32 60  1  0
 35 61  1  0
 35 62  1  0
M  END
$$$$
A1
     RDKit          3D

 57 61  0  0  0  0  0  0  0  0999 V2000
   -2.7705    2.4159    0.2395 O   0  0  0  0  0  0  0  0  0  0  0  0
   -1.9838    1.5554   -0.1343 C   0  0  0  0  0  0  0  0  0  0  0  0
   -2.3195    0.4719   -0.9116 N   0  0  0  0  0  0  0  0  0  0  0  0
   -3.6721    0.1444   -1.3041 C   0  0  0  0  0  0  0  0  0  0  0  0
   -4.3238   -0.8697   -0.3818 C   0  0  0  0  0  0  0  0  0  0  0  0
   -3.5790   -2.0355   -0.0805 C   0  0  0  0  0  0  0  0  0  0  0  0
   -4.1357   -3.1126    0.6111 C   0  0  0  0  0  0  0  0  0  0  0  0
   -5.4651   -3.0672    1.0023 C   0  0  0  0  0  0  0  0  0  0  0  0
   -6.2311   -1.9389    0.7145 C   0  0  0  0  0  0  0  0  0  0  0  0
   -5.6719   -0.8309    0.0430 C   0  0  0  0  0  0  0  0  0  0  0  0
   -6.5276    0.2909   -0.1540 N   0  0  0  0  0  0  0  0  0  0  0  0
   -7.8824    0.2309   -0.4337 C   0  0  0  0  0  0  0  0  0  0  0  0
   -8.3818    1.5112   -0.5323 C   0  0  0  0  0  0  0  0  0  0  0  0
   -7.3174    2.3937   -0.2586 C   0  0  0  0  0  0  0  0  0  0  0  0
   -6.2034    1.6226   -0.0068 C   0  0  0  0  0  0  0  0  0  0  0  0
   -0.5312    1.6094    0.2358 C   0  0  0  0  0  0  0  0  0  0  0  0
   -0.0512    2.6622    0.9996 C   0  0  0  0  0  0  0  0  0  0  0  0
    1.3001    2.6702    1.3248 C   0  0  0  0  0  0  0  0  0  0  0  0
    2.1238    1.6272    0.8878 C   0  0  0  0  0  0  0  0  0  0  0  0
    1.5611    0.6090    0.1049 C   0  0  0  0  0  0  0  0  0  0  0  0
    0.2427    0.5808   -0.2171 N   0  0  0  0  0  0  0  0  0  0  0  0
    2.4060   -0.5491   -0.3906 C   0  0  0  0  0  0  0  0  0  0  0  0
    3.8452   -0.3719   -0.1971 N   0  0  0  0  0  0  0  0  0  0  0  0
    4.6693   -1.2671   -0.8775 C   0  0  0  0  0  0  0  0  0  0  0  0
    4.2381   -2.1863   -1.5687 O   0  0  0  0  0  0  0  0  0  0  0  0
    6.1389   -1.0891   -0.8024 C   0  0  0  0  0  0  0  0  0  0  0  0
    6.9461   -2.2107   -0.5728 C   0  0  0  0  0  0  0  0  0  0  0  0
    8.3338   -2.0667   -0.5275 C   0  0  0  0  0  0  0  0  0  0  0  0
    8.9001   -0.8105   -0.7261 C   0  0  0  0  0  0  0  0  0  0  0  0
   10.2312   -0.6739   -0.6806 F   0  0  0  0  0  0  0  0  0  0  0  0
    8.1077    0.3054   -0.9806 C   0  0  0  0  0  0  0  0  0  0  0  0
    6.7198    0.1668   -1.0299 C   0  0  0  0  0  0  0  0  0  0  0  0
    4.2209    0.2496    1.0733 C   0  0  0  0  0  0  0  0  0  0  0  0
    3.5971    1.6383    1.1995 C   0  0  0  0  0  0  0  0  0  0  0  0
   -1.5606   -0.1672   -1.1280 H   0  0  0  0  0  0  0  0  0  0  0  0
   -4.2328    1.0700   -1.4184 H   0  0  0  0  0  0  0  0  0  0  0  0
   -3.6094   -0.3027   -2.3037 H   0  0  0  0  0  0  0  0  0  0  0  0
   -2.5458   -2.1261   -0.4105 H   0  0  0  0  0  0  0  0  0  0  0  0
   -3.5320   -3.9900    0.8298 H   0  0  0  0  0  0  0  0  0  0  0  0
   -5.9065   -3.9023    1.5401 H   0  0  0  0  0  0  0  0  0  0  0  0
   -7.2602   -1.9209    1.0685 H   0  0  0  0  0  0  0  0  0  0  0  0
   -8.3758   -0.7194   -0.5856 H   0  0  0  0  0  0  0  0  0  0  0  0
   -9.4056    1.7755   -0.7642 H   0  0  0  0  0  0  0  0  0  0  0  0
   -7.3564    3.4744   -0.2173 H   0  0  0  0  0  0  0  0  0  0  0  0
   -5.2153    1.9248    0.3125 H   0  0  0  0  0  0  0  0  0  0  0  0
   -0.7126    3.4564    1.3305 H   0  0  0  0  0  0  0  0  0  0  0  0
    1.7043    3.4888    1.9159 H   0  0  0  0  0  0  0  0  0  0  0  0
    2.2067   -0.7089   -1.4566 H   0  0  0  0  0  0  0  0  0  0  0  0
    2.1080   -1.4555    0.1510 H   0  0  0  0  0  0  0  0  0  0  0  0
    6.4946   -3.1912   -0.4363 H   0  0  0  0  0  0  0  0  0  0  0  0
    8.9751   -2.9242   -0.3480 H   0  0  0  0  0  0  0  0  0  0  0  0
    8.5764    1.2712   -1.1473 H   0  0  0  0  0  0  0  0  0  0  0  0
    6.0982    1.0297   -1.2562 H   0  0  0  0  0  0  0  0  0  0  0  0
    3.8580   -0.4114    1.8718 H   0  0  0  0  0  0  0  0  0  0  0  0
    5.3037    0.3142    1.1982 H   0  0  0  0  0  0  0  0  0  0  0  0
    3.7672    2.0153    2.2143 H   0  0  0  0  0  0  0  0  0  0  0  0
    4.0865    2.3241    0.4968 H   0  0  0  0  0  0  0  0  0  0  0  0
  1  2  2  0
  2  3  1  0
  3  4  1  0
  4  5  1  0
  5  6  2  0
  6  7  1  0
  7  8  2  0
  8  9  1  0
  9 10  2  0
 10 11  1  0
 11 12  1  0
 12 13  2  0
 13 14  1  0
 14 15  2  0
  2 16  1  0
 16 17  2  0
 17 18  1  0
 18 19  2  0
 19 20  1  0
 20 21  2  0
 20 22  1  0
 22 23  1  0
 23 24  1  0
 24 25  2  0
 24 26  1  0
 26 27  2  0
 27 28  1  0
 28 29  2  0
 29 30  1  0
 29 31  1  0
 31 32  2  0
 23 33  1  0
 33 34  1  0
 10  5  1  0
 15 11  1  0
 21 16  1  0
 32 26  1  0
 34 19  1  0
  3 35  1  0
  4 36  1  0
  4 37  1  0
  6 38  1  0
  7 39  1  0
  8 40  1  0
  9 41  1  0
 12 42  1  0
 13 43  1  0
 14 44  1  0
 15 45  1  0
 17 46  1  0
 18 47  1  0
 22 48  1  0
 22 49  1  0
 27 50  1  0
 28 51  1  0
 31 52  1  0
 32 53  1  0
 33 54  1  0
 33 55  1  0
 34 56  1  0
 34 57  1  0
M  END
$$$$
A2
     RDKit          3D

 60 64  0  0  0  0  0  0  0  0999 V2000
   -4.2178   -1.8339   -1.9482 O   0  0  0  0  0  0  0  0  0  0  0  0
   -3.1271   -1.3688   -1.6477 C   0  0  0  0  0  0  0  0  0  0  0  0
   -2.9022   -0.0315   -1.4107 N   0  0  0  0  0  0  0  0  0  0  0  0
   -3.9352    0.9575   -1.5523 C   0  0  0  0  0  0  0  0  0  0  0  0
   -3.5704    2.2667   -0.8908 C   0  0  0  0  0  0  0  0  0  0  0  0
   -3.5504    3.4053   -1.7270 C   0  0  0  0  0  0  0  0  0  0  0  0
   -3.1329    4.6529   -1.2634 C   0  0  0  0  0  0  0  0  0  0  0  0
   -2.7167    4.7915    0.0516 C   0  0  0  0  0  0  0  0  0  0  0  0
   -2.7330    3.6879    0.9052 C   0  0  0  0  0  0  0  0  0  0  0  0
   -3.1785    2.4261    0.4591 C   0  0  0  0  0  0  0  0  0  0  0  0
   -3.2019    1.3683    1.4198 N   0  0  0  0  0  0  0  0  0  0  0  0
   -2.3295    1.2363    2.4904 C   0  0  0  0  0  0  0  0  0  0  0  0
   -2.6534    0.1052    3.2067 C   0  0  0  0  0  0  0  0  0  0  0  0
   -3.7830   -0.4666    2.5892 C   0  0  0  0  0  0  0  0  0  0  0  0
   -4.1091    0.3323    1.5149 C   0  0  0  0  0  0  0  0  0  0  0  0
   -1.9097   -2.2338   -1.5199 C   0  0  0  0  0  0  0  0  0  0  0  0
   -2.0231   -3.6074   -1.6734 C   0  0  0  0  0  0  0  0  0  0  0  0
   -0.8678   -4.3744   -1.5659 C   0  0  0  0  0  0  0  0  0  0  0  0
    0.3565   -3.7471   -1.3201 C   0  0  0  0  0  0  0  0  0  0  0  0
    0.3811   -2.3576   -1.1604 C   0  0  0  0  0  0  0  0  0  0  0  0
   -0.7339   -1.5901   -1.2658 N   0  0  0  0  0  0  0  0  0  0  0  0
    1.6750   -1.6267   -0.8593 C   0  0  0  0  0  0  0  0  0  0  0  0
    2.8851   -2.4593   -0.8112 N   0  0  0  0  0  0  0  0  0  0  0  0
    4.1457   -1.9202   -0.5466 C   0  0  0  0  0  0  0  0  0  0  0  0
    5.2044   -2.4903   -0.7817 O   0  0  0  0  0  0  0  0  0  0  0  0
    4.2271   -0.5764    0.0369 C   0  0  0  0  0  0  0  0  0  0  0  0
    3.9503   -0.3730    1.3778 C   0  0  0  0  0  0  0  0  0  0  0  0
    4.0123    0.8443    1.9718 N   0  0  0  0  0  0  0  0  0  0  0  0
    4.3895    1.8848    1.2002 C   0  0  0  0  0  0  0  0  0  0  0  0
    4.4438    3.1507    1.7239 O   0  0  0  0  0  0  0  0  0  0  0  0
    4.4726    3.1601    3.1392 C   0  0  0  0  0  0  0  0  0  0  0  0
    3.3117    2.7301    3.6789 F   0  0  0  0  0  0  0  0  0  0  0  0
    4.6455    4.4485    3.5304 F   0  0  0  0  0  0  0  0  0  0  0  0
    5.5175    2.4516    3.6238 F   0  0  0  0  0  0  0  0  0  0  0  0
    4.6979    1.7664   -0.1499 C   0  0  0  0  0  0  0  0  0  0  0  0
    4.6241    0.5086   -0.7418 C   0  0  0  0  0  0  0  0  0  0  0  0
    2.8426   -3.7185   -1.5503 C   0  0  0  0  0  0  0  0  0  0  0  0
    1.6188   -4.5492   -1.1767 C   0  0  0  0  0  0  0  0  0  0  0  0
   -1.9395    0.2482   -1.2208 H   0  0  0  0  0  0  0  0  0  0  0  0
   -4.0592    1.0923   -2.6336 H   0  0  0  0  0  0  0  0  0  0  0  0
   -4.8981    0.5804   -1.2002 H   0  0  0  0  0  0  0  0  0  0  0  0
   -3.8461    3.3215   -2.7706 H   0  0  0  0  0  0  0  0  0  0  0  0
   -3.1235    5.5089   -1.9323 H   0  0  0  0  0  0  0  0  0  0  0  0
   -2.3884    5.7576    0.4242 H   0  0  0  0  0  0  0  0  0  0  0  0
   -2.4339    3.8511    1.9398 H   0  0  0  0  0  0  0  0  0  0  0  0
   -1.5164    1.9334    2.6376 H   0  0  0  0  0  0  0  0  0  0  0  0
   -2.1331   -0.2597    4.0825 H   0  0  0  0  0  0  0  0  0  0  0  0
   -4.3236   -1.3516    2.9022 H   0  0  0  0  0  0  0  0  0  0  0  0
   -4.9496    0.2502    0.8445 H   0  0  0  0  0  0  0  0  0  0  0  0
   -2.9875   -4.0678   -1.8696 H   0  0  0  0  0  0  0  0  0  0  0  0
   -0.9265   -5.4543   -1.6766 H   0  0  0  0  0  0  0  0  0  0  0  0
    1.5644   -1.1237    0.1082 H   0  0  0  0  0  0  0  0  0  0  0  0
    1.8331   -0.8605   -1.6252 H   0  0  0  0  0  0  0  0  0  0  0  0
    3.6627   -1.1937    2.0282 H   0  0  0  0  0  0  0  0  0  0  0  0
    5.0053    2.6336   -0.7253 H   0  0  0  0  0  0  0  0  0  0  0  0
    4.8758    0.3755   -1.7906 H   0  0  0  0  0  0  0  0  0  0  0  0
    2.8332   -3.4634   -2.6190 H   0  0  0  0  0  0  0  0  0  0  0  0
    3.7474   -4.3068   -1.3618 H   0  0  0  0  0  0  0  0  0  0  0  0
    1.5833   -5.4373   -1.8170 H   0  0  0  0  0  0  0  0  0  0  0  0
    1.6950   -4.8842   -0.1359 H   0  0  0  0  0  0  0  0  0  0  0  0
  1  2  2  0
  2  3  1  0
  3  4  1  0
  4  5  1  0
  5  6  2  0
  6  7  1  0
  7  8  2  0
  8  9  1  0
  9 10  2  0
 10 11  1  0
 11 12  1  0
 12 13  2  0
 13 14  1  0
 14 15  2  0
  2 16  1  0
 16 17  2  0
 17 18  1  0
 18 19  2  0
 19 20  1  0
 20 21  2  0
 20 22  1  0
 22 23  1  0
 23 24  1  0
 24 25  2  0
 24 26  1  0
 26 27  2  0
 27 28  1  0
 28 29  2  0
 29 30  1  0
 30 31  1  0
 31 32  1  0
 31 33  1  0
 31 34  1  0
 29 35  1  0
 35 36  2  0
 23 37  1  0
 37 38  1  0
 10  5  1  0
 15 11  1  0
 21 16  1  0
 36 26  1  0
 38 19  1  0
  3 39  1  0
  4 40  1  0
  4 41  1  0
  6 42  1  0
  7 43  1  0
  8 44  1  0
  9 45  1  0
 12 46  1  0
 13 47  1  0
 14 48  1  0
 15 49  1  0
 17 50  1  0
 18 51  1  0
 22 52  1  0
 22 53  1  0
 27 54  1  0
 35 55  1  0
 36 56  1  0
 37 57  1  0
 37 58  1  0
 38 59  1  0
 38 60  1  0
M  END
$$$$
A3
     RDKit          3D

 59 63  0  0  0  0  0  0  0  0999 V2000
   -2.5011   -1.6091   -1.9954 O   0  0  0  0  0  0  0  0  0  0  0  0
   -1.6213   -1.1372   -1.2861 C   0  0  0  0  0  0  0  0  0  0  0  0
   -1.7027    0.0814   -0.6488 N   0  0  0  0  0  0  0  0  0  0  0  0
   -2.8988    0.8943   -0.6508 C   0  0  0  0  0  0  0  0  0  0  0  0
   -3.8535    0.5957    0.4909 C   0  0  0  0  0  0  0  0  0  0  0  0
   -3.3382    0.0629    1.6941 C   0  0  0  0  0  0  0  0  0  0  0  0
   -4.1722   -0.3261    2.7433 C   0  0  0  0  0  0  0  0  0  0  0  0
   -5.5468   -0.1883    2.6209 C   0  0  0  0  0  0  0  0  0  0  0  0
   -6.0862    0.3644    1.4605 C   0  0  0  0  0  0  0  0  0  0  0  0
   -5.2540    0.7884    0.4040 C   0  0  0  0  0  0  0  0  0  0  0  0
   -5.8880    1.4236   -0.7079 N   0  0  0  0  0  0  0  0  0  0  0  0
   -5.4007    2.4759   -1.4594 C   0  0  0  0  0  0  0  0  0  0  0  0
   -6.3258    2.8164   -2.4224 C   0  0  0  0  0  0  0  0  0  0  0  0
   -7.4403    1.9732   -2.2463 C   0  0  0  0  0  0  0  0  0  0  0  0
   -7.1604    1.1481   -1.1796 C   0  0  0  0  0  0  0  0  0  0  0  0
   -0.3377   -1.8713   -1.0373 C   0  0  0  0  0  0  0  0  0  0  0  0
   -0.1192   -3.1003   -1.6414 C   0  0  0  0  0  0  0  0  0  0  0  0
    1.0802   -3.7534   -1.3822 C   0  0  0  0  0  0  0  0  0  0  0  0
    2.0164   -3.1668   -0.5251 C   0  0  0  0  0  0  0  0  0  0  0  0
    1.7211   -1.9119    0.0325 C   0  0  0  0  0  0  0  0  0  0  0  0
    0.5533   -1.2613   -0.2015 N   0  0  0  0  0  0  0  0  0  0  0  0
    2.6959   -1.2354    0.9839 C   0  0  0  0  0  0  0  0  0  0  0  0
    4.0370   -1.8296    0.9404 N   0  0  0  0  0  0  0  0  0  0  0  0
    5.1306   -1.2017    0.3468 C   0  0  0  0  0  0  0  0  0  0  0  0
    6.0560   -1.8158   -0.1784 O   0  0  0  0  0  0  0  0  0  0  0  0
    5.2134    0.2698    0.3648 C   0  0  0  0  0  0  0  0  0  0  0  0
    5.5699    0.9679   -0.7863 C   0  0  0  0  0  0  0  0  0  0  0  0
    5.6699    2.3583   -0.7356 C   0  0  0  0  0  0  0  0  0  0  0  0
    5.4166    3.0207    0.4706 C   0  0  0  0  0  0  0  0  0  0  0  0
    5.5470    4.5403    0.5167 C   0  0  0  0  0  0  0  0  0  0  0  0
    4.9298    5.1216    1.5837 F   0  0  0  0  0  0  0  0  0  0  0  0
    5.0131    5.1427   -0.5877 F   0  0  0  0  0  0  0  0  0  0  0  0
    6.8469    4.9516    0.5623 F   0  0  0  0  0  0  0  0  0  0  0  0
    5.0945    2.3371    1.6101 N   0  0  0  0  0  0  0  0  0  0  0  0
    5.0155    0.9860    1.5346 C   0  0  0  0  0  0  0  0  0  0  0  0
    4.0310   -3.2885    0.9778 C   0  0  0  0  0  0  0  0  0  0  0  0
    3.3411   -3.8460   -0.2684 C   0  0  0  0  0  0  0  0  0  0  0  0
   -0.9155    0.3355   -0.0612 H   0  0  0  0  0  0  0  0  0  0  0  0
   -2.5647    1.9338   -0.5769 H   0  0  0  0  0  0  0  0  0  0  0  0
   -3.3901    0.7332   -1.6149 H   0  0  0  0  0  0  0  0  0  0  0  0
   -2.2678   -0.0836    1.8202 H   0  0  0  0  0  0  0  0  0  0  0  0
   -3.7451   -0.7474    3.6496 H   0  0  0  0  0  0  0  0  0  0  0  0
   -6.2008   -0.4935    3.4334 H   0  0  0  0  0  0  0  0  0  0  0  0
   -7.1642    0.5044    1.4238 H   0  0  0  0  0  0  0  0  0  0  0  0
   -4.4544    2.9409   -1.2311 H   0  0  0  0  0  0  0  0  0  0  0  0
   -6.2134    3.6042   -3.1561 H   0  0  0  0  0  0  0  0  0  0  0  0
   -8.3532    1.9662   -2.8278 H   0  0  0  0  0  0  0  0  0  0  0  0
   -7.7519    0.3506   -0.7517 H   0  0  0  0  0  0  0  0  0  0  0  0
   -0.8636   -3.5371   -2.2997 H   0  0  0  0  0  0  0  0  0  0  0  0
    1.2809   -4.7142   -1.8509 H   0  0  0  0  0  0  0  0  0  0  0  0
    2.7200   -0.1698    0.7451 H   0  0  0  0  0  0  0  0  0  0  0  0
    2.3214   -1.3552    2.0068 H   0  0  0  0  0  0  0  0  0  0  0  0
    5.7738    0.4345   -1.7120 H   0  0  0  0  0  0  0  0  0  0  0  0
    5.9465    2.9166   -1.6270 H   0  0  0  0  0  0  0  0  0  0  0  0
    4.7876    0.4880    2.4734 H   0  0  0  0  0  0  0  0  0  0  0  0
    3.4962   -3.5936    1.8859 H   0  0  0  0  0  0  0  0  0  0  0  0
    5.0521   -3.6781    1.0531 H   0  0  0  0  0  0  0  0  0  0  0  0
    3.1959   -4.9253   -0.1449 H   0  0  0  0  0  0  0  0  0  0  0  0
    3.9779   -3.6879   -1.1474 H   0  0  0  0  0  0  0  0  0  0  0  0
  1  2  2  0
  2  3  1  0
  3  4  1  0
  4  5  1  0
  5  6  2  0
  6  7  1  0
  7  8  2  0
  8  9  1  0
  9 10  2  0
 10 11  1  0
 11 12  1  0
 12 13  2  0
 13 14  1  0
 14 15  2  0
  2 16  1  0
 16 17  2  0
 17 18  1  0
 18 19  2  0
 19 20  1  0
 20 21  2  0
 20 22  1  0
 22 23  1  0
 23 24  1  0
 24 25  2  0
 24 26  1  0
 26 27  2  0
 27 28  1  0
 28 29  2  0
 29 30  1  0
 30 31  1  0
 30 32  1  0
 30 33  1  0
 29 34  1  0
 34 35  2  0
 23 36  1  0
 36 37  1  0
 10  5  1  0
 15 11  1  0
 21 16  1  0
 35 26  1  0
 37 19  1  0
  3 38  1  0
  4 39  1  0
  4 40  1  0
  6 41  1  0
  7 42  1  0
  8 43  1  0
  9 44  1  0
 12 45  1  0
 13 46  1  0
 14 47  1  0
 15 48  1  0
 17 49  1  0
 18 50  1  0
 22 51  1  0
 22 52  1  0
 27 53  1  0
 28 54  1  0
 35 55  1  0
 36 56  1  0
 36 57  1  0
 37 58  1  0
 37 59  1  0
M  END
$$$$
B1
     RDKit          3D

 54 58  0  0  0  0  0  0  0  0999 V2000
   -4.3049    2.3043    2.7028 C   0  0  0  0  0  0  0  0  0  0  0  0
   -4.6124    1.3687    1.5905 C   0  0  0  0  0  0  0  0  0  0  0  0
   -3.6878    0.7465    0.7570 C   0  0  0  0  0  0  0  0  0  0  0  0
   -2.2390    0.8735    0.7023 C   0  0  0  0  0  0  0  0  0  0  0  0
   -1.6872    1.9261    1.0331 O   0  0  0  0  0  0  0  0  0  0  0  0
   -1.4602   -0.2139    0.2776 N   0  0  0  0  0  0  0  0  0  0  0  0
   -1.9845   -1.5268   -0.0946 C   0  0  0  0  0  0  0  0  0  0  0  0
   -1.0007   -2.6518    0.2309 C   0  0  0  0  0  0  0  0  0  0  0  0
    0.3637   -2.3759   -0.3286 C   0  0  0  0  0  0  0  0  0  0  0  0
    1.2395   -3.4190   -0.6431 C   0  0  0  0  0  0  0  0  0  0  0  0
    2.5105   -3.1275   -1.1247 C   0  0  0  0  0  0  0  0  0  0  0  0
    2.8618   -1.7950   -1.2680 C   0  0  0  0  0  0  0  0  0  0  0  0
    4.2247   -1.4293   -1.7750 C   0  0  0  0  0  0  0  0  0  0  0  0
    5.0715   -2.2823   -2.0158 O   0  0  0  0  0  0  0  0  0  0  0  0
    4.4246   -0.0745   -1.9217 N   0  0  0  0  0  0  0  0  0  0  0  0
    5.7063    0.4975   -2.2419 C   0  0  0  0  0  0  0  0  0  0  0  0
    6.3922    1.0011   -1.0012 C   0  0  0  0  0  0  0  0  0  0  0  0
    7.0735    0.1179   -0.1578 C   0  0  0  0  0  0  0  0  0  0  0  0
    7.6678    0.6189    0.9888 C   0  0  0  0  0  0  0  0  0  0  0  0
    7.6279    1.9197    1.3490 N   0  0  0  0  0  0  0  0  0  0  0  0
    6.9576    2.7545    0.5269 C   0  0  0  0  0  0  0  0  0  0  0  0
    6.3296    2.3499   -0.6407 C   0  0  0  0  0  0  0  0  0  0  0  0
    2.0361   -0.7535   -0.9630 N   0  0  0  0  0  0  0  0  0  0  0  0
    0.8010   -1.0581   -0.4888 C   0  0  0  0  0  0  0  0  0  0  0  0
   -0.0914    0.1100   -0.1265 C   0  0  0  0  0  0  0  0  0  0  0  0
   -4.3450   -0.0126   -0.1738 O   0  0  0  0  0  0  0  0  0  0  0  0
   -5.6760    0.0953    0.0724 C   0  0  0  0  0  0  0  0  0  0  0  0
   -6.6826   -0.5370   -0.6542 C   0  0  0  0  0  0  0  0  0  0  0  0
   -7.9961   -0.2963   -0.2412 C   0  0  0  0  0  0  0  0  0  0  0  0
   -8.2683    0.5386    0.8457 C   0  0  0  0  0  0  0  0  0  0  0  0
   -7.2314    1.1628    1.5541 C   0  0  0  0  0  0  0  0  0  0  0  0
   -5.9010    0.9325    1.1561 C   0  0  0  0  0  0  0  0  0  0  0  0
   -3.9485    3.2602    2.3089 H   0  0  0  0  0  0  0  0  0  0  0  0
   -3.5318    1.8855    3.3552 H   0  0  0  0  0  0  0  0  0  0  0  0
   -5.1879    2.5012    3.3187 H   0  0  0  0  0  0  0  0  0  0  0  0
   -2.9115   -1.7380    0.4447 H   0  0  0  0  0  0  0  0  0  0  0  0
   -2.2062   -1.4978   -1.1692 H   0  0  0  0  0  0  0  0  0  0  0  0
   -1.3952   -3.5943   -0.1674 H   0  0  0  0  0  0  0  0  0  0  0  0
   -0.9082   -2.7587    1.3185 H   0  0  0  0  0  0  0  0  0  0  0  0
    0.9391   -4.4558   -0.5136 H   0  0  0  0  0  0  0  0  0  0  0  0
    3.2085   -3.9175   -1.3781 H   0  0  0  0  0  0  0  0  0  0  0  0
    3.6812    0.5219   -1.5705 H   0  0  0  0  0  0  0  0  0  0  0  0
    6.3396   -0.2351   -2.7541 H   0  0  0  0  0  0  0  0  0  0  0  0
    5.5292    1.3212   -2.9430 H   0  0  0  0  0  0  0  0  0  0  0  0
    7.1332   -0.9418   -0.3872 H   0  0  0  0  0  0  0  0  0  0  0  0
    8.2038   -0.0343    1.6713 H   0  0  0  0  0  0  0  0  0  0  0  0
    6.9347    3.7933    0.8429 H   0  0  0  0  0  0  0  0  0  0  0  0
    5.8030    3.0750   -1.2512 H   0  0  0  0  0  0  0  0  0  0  0  0
    0.3892    0.6738    0.6828 H   0  0  0  0  0  0  0  0  0  0  0  0
   -0.1623    0.7712   -1.0005 H   0  0  0  0  0  0  0  0  0  0  0  0
   -6.4534   -1.1771   -1.4977 H   0  0  0  0  0  0  0  0  0  0  0  0
   -8.8189   -0.7655   -0.7769 H   0  0  0  0  0  0  0  0  0  0  0  0
   -9.2997    0.7109    1.1459 H   0  0  0  0  0  0  0  0  0  0  0  0
   -7.4579    1.8133    2.3937 H   0  0  0  0  0  0  0  0  0  0  0  0
  1  2  1  0
  2  3  2  0
  3  4  1  0
  4  5  2  0
  4  6  1  0
  6  7  1  0
  7  8  1  0
  8  9  1  0
  9 10  2  0
 10 11  1  0
 11 12  2  0
 12 13  1  0
 13 14  2  0
 13 15  1  0
 15 16  1  0
 16 17  1  0
 17 18  2  0
 18 19  1  0
 19 20  2  0
 20 21  1  0
 21 22  2  0
 12 23  1  0
 23 24  2  0
 24 25  1  0
  3 26  1  0
 26 27  1  0
 27 28  2  0
 28 29  1  0
 29 30  2  0
 30 31  1  0
 31 32  2  0
 32  2  1  0
 25  6  1  0
 32 27  1  0
 24  9  1  0
 22 17  1  0
  1 33  1  0
  1 34  1  0
  1 35  1  0
  7 36  1  0
  7 37  1  0
  8 38  1  0
  8 39  1  0
 10 40  1  0
 11 41  1  0
 15 42  1  0
 16 43  1  0
 16 44  1  0
 18 45  1  0
 19 46  1  0
 21 47  1  0
 22 48  1  0
 25 49  1  0
 25 50  1  0
 28 51  1  0
 29 52  1  0
 30 53  1  0
 31 54  1  0
M  END
$$$$
B2
     RDKit          3D

 59 63  0  0  0  0  0  0  0  0999 V2000
    5.0776    3.2387   -1.1922 C   0  0  0  0  0  0  0  0  0  0  0  0
    5.2275    1.8227   -0.7696 C   0  0  0  0  0  0  0  0  0  0  0  0
    4.2042    0.9640   -0.3803 C   0  0  0  0  0  0  0  0  0  0  0  0
    2.7759    1.1996   -0.2305 C   0  0  0  0  0  0  0  0  0  0  0  0
    2.3322    2.3316   -0.0271 O   0  0  0  0  0  0  0  0  0  0  0  0
    1.9062    0.1054   -0.2941 N   0  0  0  0  0  0  0  0  0  0  0  0
    2.1370   -1.0603   -1.1451 C   0  0  0  0  0  0  0  0  0  0  0  0
    1.6455   -2.3286   -0.4517 C   0  0  0  0  0  0  0  0  0  0  0  0
    0.2366   -2.1715    0.0603 C   0  0  0  0  0  0  0  0  0  0  0  0
   -0.5453   -3.2972    0.3393 C   0  0  0  0  0  0  0  0  0  0  0  0
   -1.8322   -3.1341    0.8384 C   0  0  0  0  0  0  0  0  0  0  0  0
   -2.2897   -1.8428    1.0508 C   0  0  0  0  0  0  0  0  0  0  0  0
   -3.6745   -1.6173    1.5806 C   0  0  0  0  0  0  0  0  0  0  0  0
   -4.4348   -2.5504    1.8081 O   0  0  0  0  0  0  0  0  0  0  0  0
   -3.9939   -0.2895    1.7686 N   0  0  0  0  0  0  0  0  0  0  0  0
   -5.2694    0.1733    2.2656 C   0  0  0  0  0  0  0  0  0  0  0  0
   -6.2054    0.7102    1.1696 C   0  0  0  0  0  0  0  0  0  0  0  0
   -5.6272    1.9540    0.4729 C   0  0  0  0  0  0  0  0  0  0  0  0
   -6.2895    2.1526   -0.8825 C   0  0  0  0  0  0  0  0  0  0  0  0
   -6.0533    1.0672   -1.7791 O   0  0  0  0  0  0  0  0  0  0  0  0
   -5.8481   -0.2042   -1.1597 C   0  0  0  0  0  0  0  0  0  0  0  0
   -6.6206   -0.3574    0.1426 C   0  0  0  0  0  0  0  0  0  0  0  0
   -1.5537   -0.7220    0.8019 N   0  0  0  0  0  0  0  0  0  0  0  0
   -0.2973   -0.9008    0.3205 C   0  0  0  0  0  0  0  0  0  0  0  0
    0.5060    0.3549    0.0364 C   0  0  0  0  0  0  0  0  0  0  0  0
    4.7310   -0.2495   -0.0242 O   0  0  0  0  0  0  0  0  0  0  0  0
    6.0741   -0.1854   -0.2108 C   0  0  0  0  0  0  0  0  0  0  0  0
    6.9695   -1.2257    0.0272 C   0  0  0  0  0  0  0  0  0  0  0  0
    8.3187   -0.9582   -0.2236 C   0  0  0  0  0  0  0  0  0  0  0  0
    8.7306    0.2934   -0.6864 C   0  0  0  0  0  0  0  0  0  0  0  0
    7.8031    1.3206   -0.9143 C   0  0  0  0  0  0  0  0  0  0  0  0
    6.4388    1.0716   -0.6720 C   0  0  0  0  0  0  0  0  0  0  0  0
    4.8267    3.8679   -0.3325 H   0  0  0  0  0  0  0  0  0  0  0  0
    4.2839    3.3378   -1.9395 H   0  0  0  0  0  0  0  0  0  0  0  0
    6.0001    3.6246   -1.6365 H   0  0  0  0  0  0  0  0  0  0  0  0
    3.1791   -1.1712   -1.4467 H   0  0  0  0  0  0  0  0  0  0  0  0
    1.5751   -0.8901   -2.0734 H   0  0  0  0  0  0  0  0  0  0  0  0
    1.7003   -3.1658   -1.1570 H   0  0  0  0  0  0  0  0  0  0  0  0
    2.2956   -2.5588    0.4013 H   0  0  0  0  0  0  0  0  0  0  0  0
   -0.1574   -4.2990    0.1705 H   0  0  0  0  0  0  0  0  0  0  0  0
   -2.4608   -3.9909    1.0583 H   0  0  0  0  0  0  0  0  0  0  0  0
   -3.2583    0.3764    1.5424 H   0  0  0  0  0  0  0  0  0  0  0  0
   -5.7627   -0.6408    2.8089 H   0  0  0  0  0  0  0  0  0  0  0  0
   -5.0542    0.9672    2.9895 H   0  0  0  0  0  0  0  0  0  0  0  0
   -7.1252    1.0206    1.6856 H   0  0  0  0  0  0  0  0  0  0  0  0
   -5.7765    2.8372    1.1042 H   0  0  0  0  0  0  0  0  0  0  0  0
   -4.5475    1.8461    0.3185 H   0  0  0  0  0  0  0  0  0  0  0  0
   -5.9103    3.0617   -1.3600 H   0  0  0  0  0  0  0  0  0  0  0  0
   -7.3730    2.2751   -0.7707 H   0  0  0  0  0  0  0  0  0  0  0  0
   -6.1629   -0.9702   -1.8757 H   0  0  0  0  0  0  0  0  0  0  0  0
   -4.7726   -0.3372   -1.0022 H   0  0  0  0  0  0  0  0  0  0  0  0
   -6.5151   -1.3699    0.5436 H   0  0  0  0  0  0  0  0  0  0  0  0
   -7.6877   -0.2198   -0.0770 H   0  0  0  0  0  0  0  0  0  0  0  0
    0.4546    1.0143    0.9108 H   0  0  0  0  0  0  0  0  0  0  0  0
    0.0517    0.8783   -0.8138 H   0  0  0  0  0  0  0  0  0  0  0  0
    6.6327   -2.1882    0.3916 H   0  0  0  0  0  0  0  0  0  0  0  0
    9.0586   -1.7372   -0.0521 H   0  0  0  0  0  0  0  0  0  0  0  0
    9.7871    0.4772   -0.8706 H   0  0  0  0  0  0  0  0  0  0  0  0
    8.1389    2.2898   -1.2702 H   0  0  0  0  0  0  0  0  0  0  0  0
  1  2  1  0
  2  3  2  0
  3  4  1  0
  4  5  2  0
  4  6  1  0
  6  7  1  0
  7  8  1  0
  8  9  1  0
  9 10  2  0
 10 11  1  0
 11 12  2  0
 12 13  1  0
 13 14  2  0
 13 15  1  0
 15 16  1  0
 16 17  1  0
 17 18  1  0
 18 19  1  0
 19 20  1  0
 20 21  1  0
 21 22  1  0
 12 23  1  0
 23 24  2  0
 24 25  1  0
  3 26  1  0
 26 27  1  0
 27 28  2  0
 28 29  1  0
 29 30  2  0
 30 31  1  0
 31 32  2  0
 32  2  1  0
 25  6  1  0
 32 27  1  0
 24  9  1  0
 22 17  1  0
  1 33  1  0
  1 34  1  0
  1 35  1  0
  7 36  1  0
  7 37  1  0
  8 38  1  0
  8 39  1  0
 10 40  1  0
 11 41  1  0
 15 42  1  0
 16 43  1  0
 16 44  1  0
 17 45  1  0
 18 46  1  0
 18 47  1  0
 19 48  1  0
 19 49  1  0
 21 50  1  0
 21 51  1  0
 22 52  1  0
 22 53  1  0
 25 54  1  0
 25 55  1  0
 28 56  1  0
 29 57  1  0
 30 58  1  0
 31 59  1  0
M  END
$$$$
B3
     RDKit          3D

 55 59  0  0  0  0  0  0  0  0999 V2000
   -4.7594    2.1103   -2.7667 C   0  0  0  0  0  0  0  0  0  0  0  0
   -4.9171    1.1911   -1.6095 C   0  0  0  0  0  0  0  0  0  0  0  0
   -3.8924    0.6450   -0.8393 C   0  0  0  0  0  0  0  0  0  0  0  0
   -2.4458    0.7657   -0.9746 C   0  0  0  0  0  0  0  0  0  0  0  0
   -1.9333    1.0612   -2.0579 O   0  0  0  0  0  0  0  0  0  0  0  0
   -1.6231    0.5454    0.1380 N   0  0  0  0  0  0  0  0  0  0  0  0
   -2.0977    0.3796    1.5140 C   0  0  0  0  0  0  0  0  0  0  0  0
   -1.0797    0.8347    2.5611 C   0  0  0  0  0  0  0  0  0  0  0  0
    0.2418    0.1624    2.3328 C   0  0  0  0  0  0  0  0  0  0  0  0
    1.0778   -0.2065    3.3887 C   0  0  0  0  0  0  0  0  0  0  0  0
    2.2939   -0.8216    3.1130 C   0  0  0  0  0  0  0  0  0  0  0  0
    2.6321   -1.0334    1.7844 C   0  0  0  0  0  0  0  0  0  0  0  0
    3.9315   -1.6970    1.4402 C   0  0  0  0  0  0  0  0  0  0  0  0
    4.7253   -2.0430    2.3074 O   0  0  0  0  0  0  0  0  0  0  0  0
    4.1375   -1.8615    0.0880 N   0  0  0  0  0  0  0  0  0  0  0  0
    5.3857   -2.3249   -0.4609 C   0  0  0  0  0  0  0  0  0  0  0  0
    6.2554   -1.1643   -0.8739 C   0  0  0  0  0  0  0  0  0  0  0  0
    6.2196   -0.6750   -2.1899 C   0  0  0  0  0  0  0  0  0  0  0  0
    7.0090    0.4163   -2.5575 C   0  0  0  0  0  0  0  0  0  0  0  0
    7.8271    1.0219   -1.6098 C   0  0  0  0  0  0  0  0  0  0  0  0
    8.5833    2.0692   -1.9648 F   0  0  0  0  0  0  0  0  0  0  0  0
    7.8697    0.5603   -0.2996 C   0  0  0  0  0  0  0  0  0  0  0  0
    7.0815   -0.5302    0.0698 C   0  0  0  0  0  0  0  0  0  0  0  0
    1.8491   -0.6651    0.7308 N   0  0  0  0  0  0  0  0  0  0  0  0
    0.6628   -0.0752    1.0219 C   0  0  0  0  0  0  0  0  0  0  0  0
   -0.1932    0.3823   -0.1406 C   0  0  0  0  0  0  0  0  0  0  0  0
   -4.4273   -0.1767    0.1176 O   0  0  0  0  0  0  0  0  0  0  0  0
   -5.7776   -0.1472   -0.0193 C   0  0  0  0  0  0  0  0  0  0  0  0
   -6.6814   -0.8501    0.7737 C   0  0  0  0  0  0  0  0  0  0  0  0
   -8.0366   -0.6922    0.4655 C   0  0  0  0  0  0  0  0  0  0  0  0
   -8.4452    0.1315   -0.5867 C   0  0  0  0  0  0  0  0  0  0  0  0
   -7.5082    0.8256   -1.3665 C   0  0  0  0  0  0  0  0  0  0  0  0
   -6.1389    0.6823   -1.0720 C   0  0  0  0  0  0  0  0  0  0  0  0
   -4.0307    2.8971   -2.5413 H   0  0  0  0  0  0  0  0  0  0  0  0
   -4.4147    1.5575   -3.6470 H   0  0  0  0  0  0  0  0  0  0  0  0
   -5.7047    2.6007   -3.0209 H   0  0  0  0  0  0  0  0  0  0  0  0
   -2.3272   -0.6848    1.6465 H   0  0  0  0  0  0  0  0  0  0  0  0
   -3.0169    0.9539    1.6632 H   0  0  0  0  0  0  0  0  0  0  0  0
   -1.4652    0.6005    3.5602 H   0  0  0  0  0  0  0  0  0  0  0  0
   -0.9342    1.9207    2.5024 H   0  0  0  0  0  0  0  0  0  0  0  0
    0.7876   -0.0249    4.4206 H   0  0  0  0  0  0  0  0  0  0  0  0
    2.9602   -1.1291    3.9121 H   0  0  0  0  0  0  0  0  0  0  0  0
    3.4531   -1.4198   -0.5193 H   0  0  0  0  0  0  0  0  0  0  0  0
    5.1502   -2.9523   -1.3278 H   0  0  0  0  0  0  0  0  0  0  0  0
    5.9127   -2.9566    0.2635 H   0  0  0  0  0  0  0  0  0  0  0  0
    5.5756   -1.1402   -2.9337 H   0  0  0  0  0  0  0  0  0  0  0  0
    6.9892    0.7991   -3.5732 H   0  0  0  0  0  0  0  0  0  0  0  0
    8.5100    1.0526    0.4260 H   0  0  0  0  0  0  0  0  0  0  0  0
    7.1041   -0.8845    1.0998 H   0  0  0  0  0  0  0  0  0  0  0  0
   -0.0880   -0.3404   -0.9620 H   0  0  0  0  0  0  0  0  0  0  0  0
    0.1876    1.3497   -0.4950 H   0  0  0  0  0  0  0  0  0  0  0  0
   -6.3459   -1.4893    1.5817 H   0  0  0  0  0  0  0  0  0  0  0  0
   -8.7825   -1.2242    1.0516 H   0  0  0  0  0  0  0  0  0  0  0  0
   -9.5058    0.2345   -0.8088 H   0  0  0  0  0  0  0  0  0  0  0  0
   -7.8403    1.4587   -2.1843 H   0  0  0  0  0  0  0  0  0  0  0  0
  1  2  1  0
  2  3  2  0
  3  4  1  0
  4  5  2  0
  4  6  1  0
  6  7  1  0
  7  8  1  0
  8  9  1  0
  9 10  2  0
 10 11  1  0
 11 12  2  0
 12 13  1  0
 13 14  2  0
 13 15  1  0
 15 16  1  0
 16 17  1  0
 17 18  2  0
 18 19  1  0
 19 20  2  0
 20 21  1  0
 20 22  1  0
 22 23  2  0
 12 24  1  0
 24 25  2  0
 25 26  1  0
  3 27  1  0
 27 28  1  0
 28 29  2  0
 29 30  1  0
 30 31  2  0
 31 32  1  0
 32 33  2  0
 33  2  1  0
 26  6  1  0
 33 28  1  0
 25  9  1  0
 23 17  1  0
  1 34  1  0
  1 35  1  0
  1 36  1  0
  7 37  1  0
  7 38  1  0
  8 39  1  0
  8 40  1  0
 10 41  1  0
 11 42  1  0
 15 43  1  0
 16 44  1  0
 16 45  1  0
 18 46  1  0
 19 47  1  0
 22 48  1  0
 23 49  1  0
 26 50  1  0
 26 51  1  0
 29 52  1  0
 30 53  1  0
 31 54  1  0
 32 55  1  0
M  END
$$$$
C1
     RDKit          3D

 67 71  0  0  0  0  0  0  0  0999 V2000
   -2.1283   -1.8550   -2.6716 O   0  0  0  0  0  0  0  0  0  0  0  0
   -1.5560   -0.9808   -2.0352 C   0  0  0  0  0  0  0  0  0  0  0  0
   -1.8730    0.3567   -2.0990 N   0  0  0  0  0  0  0  0  0  0  0  0
   -2.9557    0.8639   -2.9021 C   0  0  0  0  0  0  0  0  0  0  0  0
   -4.2828    0.7939   -2.2061 C   0  0  0  0  0  0  0  0  0  0  0  0
   -5.4347    0.3888   -2.8781 C   0  0  0  0  0  0  0  0  0  0  0  0
   -6.6615    0.3731   -2.2060 C   0  0  0  0  0  0  0  0  0  0  0  0
   -6.7388    0.7537   -0.8629 C   0  0  0  0  0  0  0  0  0  0  0  0
   -7.9531    0.7512   -0.1799 N   0  0  0  0  0  0  0  0  0  0  0  0
   -7.9116    1.2674    1.1979 C   0  0  0  0  0  0  0  0  0  0  0  0
   -9.3232    1.2291    1.7980 C   0  0  0  0  0  0  0  0  0  0  0  0
   -9.8975   -0.0909    1.8657 O   0  0  0  0  0  0  0  0  0  0  0  0
   -9.3074   -1.0092    0.9344 C   0  0  0  0  0  0  0  0  0  0  0  0
   -8.8916   -0.3654   -0.3986 C   0  0  0  0  0  0  0  0  0  0  0  0
   -5.6300    1.1799   -0.2156 N   0  0  0  0  0  0  0  0  0  0  0  0
   -4.4475    1.1857   -0.8837 C   0  0  0  0  0  0  0  0  0  0  0  0
   -0.4144   -1.2940   -1.1156 C   0  0  0  0  0  0  0  0  0  0  0  0
   -0.0679   -2.6192   -0.8766 C   0  0  0  0  0  0  0  0  0  0  0  0
    1.0092   -2.8746   -0.0374 C   0  0  0  0  0  0  0  0  0  0  0  0
    1.7128   -1.8004    0.5119 C   0  0  0  0  0  0  0  0  0  0  0  0
    1.2846   -0.4951    0.2346 C   0  0  0  0  0  0  0  0  0  0  0  0
    0.2273   -0.2204   -0.5644 N   0  0  0  0  0  0  0  0  0  0  0  0
    2.0177    0.6586    0.8998 C   0  0  0  0  0  0  0  0  0  0  0  0
    3.4697    0.4516    1.0027 N   0  0  0  0  0  0  0  0  0  0  0  0
    4.2534    1.5810    1.2292 C   0  0  0  0  0  0  0  0  0  0  0  0
    3.7857    2.6913    1.4723 O   0  0  0  0  0  0  0  0  0  0  0  0
    5.7209    1.4668    1.1709 C   0  0  0  0  0  0  0  0  0  0  0  0
    6.5116    1.9680    2.2007 C   0  0  0  0  0  0  0  0  0  0  0  0
    7.8975    1.8861    2.0862 C   0  0  0  0  0  0  0  0  0  0  0  0
    8.4374    1.3222    0.9391 C   0  0  0  0  0  0  0  0  0  0  0  0
    9.8134    1.2794    0.8674 O   0  0  0  0  0  0  0  0  0  0  0  0
   10.3111    0.6012   -0.2949 C   0  0  0  0  0  0  0  0  0  0  0  0
   10.4054   -0.9044   -0.1125 C   0  0  0  0  0  0  0  0  0  0  0  0
   11.2688   -1.2135    0.8819 F   0  0  0  0  0  0  0  0  0  0  0  0
    9.2292   -1.4937    0.1768 F   0  0  0  0  0  0  0  0  0  0  0  0
   10.8794   -1.4895   -1.2409 F   0  0  0  0  0  0  0  0  0  0  0  0
    7.6969    0.8568   -0.0896 N   0  0  0  0  0  0  0  0  0  0  0  0
    6.3519    0.9534    0.0443 C   0  0  0  0  0  0  0  0  0  0  0  0
    3.9779   -0.9307    1.0422 C   0  0  0  0  0  0  0  0  0  0  0  0
    2.9125   -1.9751    1.4039 C   0  0  0  0  0  0  0  0  0  0  0  0
   -1.2982    0.9895   -1.5451 H   0  0  0  0  0  0  0  0  0  0  0  0
   -2.9855    0.2927   -3.8346 H   0  0  0  0  0  0  0  0  0  0  0  0
   -2.7264    1.9038   -3.1507 H   0  0  0  0  0  0  0  0  0  0  0  0
   -5.3935    0.0936   -3.9252 H   0  0  0  0  0  0  0  0  0  0  0  0
   -7.5536    0.0836   -2.7516 H   0  0  0  0  0  0  0  0  0  0  0  0
   -7.2408    0.6527    1.8127 H   0  0  0  0  0  0  0  0  0  0  0  0
   -7.5578    2.3053    1.2112 H   0  0  0  0  0  0  0  0  0  0  0  0
  -10.0056    1.8478    1.2065 H   0  0  0  0  0  0  0  0  0  0  0  0
   -9.3100    1.6377    2.8160 H   0  0  0  0  0  0  0  0  0  0  0  0
   -8.4421   -1.4798    1.4191 H   0  0  0  0  0  0  0  0  0  0  0  0
  -10.0389   -1.8043    0.7494 H   0  0  0  0  0  0  0  0  0  0  0  0
   -9.7801    0.0402   -0.8956 H   0  0  0  0  0  0  0  0  0  0  0  0
   -8.4777   -1.1575   -1.0335 H   0  0  0  0  0  0  0  0  0  0  0  0
   -3.6041    1.5346   -0.2907 H   0  0  0  0  0  0  0  0  0  0  0  0
   -0.6270   -3.4306   -1.3318 H   0  0  0  0  0  0  0  0  0  0  0  0
    1.3018   -3.9009    0.1695 H   0  0  0  0  0  0  0  0  0  0  0  0
    1.8215    1.6003    0.3628 H   0  0  0  0  0  0  0  0  0  0  0  0
    1.6275    0.7727    1.9243 H   0  0  0  0  0  0  0  0  0  0  0  0
    6.0562    2.4351    3.0683 H   0  0  0  0  0  0  0  0  0  0  0  0
    8.5476    2.2809    2.8629 H   0  0  0  0  0  0  0  0  0  0  0  0
   11.3272    0.9782   -0.4515 H   0  0  0  0  0  0  0  0  0  0  0  0
    9.7633    0.8708   -1.2036 H   0  0  0  0  0  0  0  0  0  0  0  0
    5.7822    0.6191   -0.8189 H   0  0  0  0  0  0  0  0  0  0  0  0
    4.8083   -0.9929    1.7535 H   0  0  0  0  0  0  0  0  0  0  0  0
    4.3693   -1.1549    0.0427 H   0  0  0  0  0  0  0  0  0  0  0  0
    2.5948   -1.8518    2.4480 H   0  0  0  0  0  0  0  0  0  0  0  0
    3.3422   -2.9790    1.2965 H   0  0  0  0  0  0  0  0  0  0  0  0
  1  2  2  0
  2  3  1  0
  3  4  1  0
  4  5  1  0
  5  6  2  0
  6  7  1  0
  7  8  2  0
  8  9  1  0
  9 10  1  0
 10 11  1  0
 11 12  1  0
 12 13  1  0
 13 14  1  0
  8 15  1  0
 15 16  2  0
  2 17  1  0
 17 18  2  0
 18 19  1  0
 19 20  2  0
 20 21  1  0
 21 22  2  0
 21 23  1  0
 23 24  1  0
 24 25  1  0
 25 26  2  0
 25 27  1  0
 27 28  2  0
 28 29  1  0
 29 30  2  0
 30 31  1  0
 31 32  1  0
 32 33  1  0
 33 34  1  0
 33 35  1  0
 33 36  1  0
 30 37  1  0
 37 38  2  0
 24 39  1  0
 39 40  1  0
 16  5  1  0
 22 17  1  0
 38 27  1  0
 14  9  1  0
 40 20  1  0
  3 41  1  0
  4 42  1  0
  4 43  1  0
  6 44  1  0
  7 45  1  0
 10 46  1  0
 10 47  1  0
 11 48  1  0
 11 49  1  0
 13 50  1  0
 13 51  1  0
 14 52  1  0
 14 53  1  0
 16 54  1  0
 18 55  1  0
 19 56  1  0
 23 57  1  0
 23 58  1  0
 28 59  1  0
 29 60  1  0
 32 61  1  0
 32 62  1  0
 38 63  1  0
 39 64  1  0
 39 65  1  0
 40 66  1  0
 40 67  1  0
M  END
$$$$
C2
     RDKit          3D

 55 58  0  0  0  0  0  0  0  0999 V2000
   -4.9503    0.4520   -2.3002 O   0  0  0  0  0  0  0  0  0  0  0  0
   -3.7607    0.5567   -2.0258 C   0  0  0  0  0  0  0  0  0  0  0  0
   -3.2027    1.6498   -1.4002 N   0  0  0  0  0  0  0  0  0  0  0  0
   -3.9923    2.7226   -0.8522 C   0  0  0  0  0  0  0  0  0  0  0  0
   -4.1812    2.5412    0.6313 C   0  0  0  0  0  0  0  0  0  0  0  0
   -3.3409    3.1918    1.5489 C   0  0  0  0  0  0  0  0  0  0  0  0
   -3.5056    3.0007    2.9237 C   0  0  0  0  0  0  0  0  0  0  0  0
   -4.5067    2.1520    3.3928 C   0  0  0  0  0  0  0  0  0  0  0  0
   -5.3329    1.4996    2.4852 C   0  0  0  0  0  0  0  0  0  0  0  0
   -6.2899    0.6790    2.9383 F   0  0  0  0  0  0  0  0  0  0  0  0
   -5.1792    1.6831    1.1154 C   0  0  0  0  0  0  0  0  0  0  0  0
   -2.7820   -0.5346   -2.3422 C   0  0  0  0  0  0  0  0  0  0  0  0
   -3.2147   -1.6854   -2.9827 C   0  0  0  0  0  0  0  0  0  0  0  0
   -2.2776   -2.6774   -3.2468 C   0  0  0  0  0  0  0  0  0  0  0  0
   -0.9436   -2.4878   -2.8718 C   0  0  0  0  0  0  0  0  0  0  0  0
   -0.5944   -1.3018   -2.2152 C   0  0  0  0  0  0  0  0  0  0  0  0
   -1.4922   -0.3179   -1.9535 N   0  0  0  0  0  0  0  0  0  0  0  0
    0.8352   -1.0388   -1.7893 C   0  0  0  0  0  0  0  0  0  0  0  0
    1.7314   -2.1970   -1.8962 N   0  0  0  0  0  0  0  0  0  0  0  0
    3.0363   -2.1499   -1.3978 C   0  0  0  0  0  0  0  0  0  0  0  0
    3.9771   -2.7553   -1.9048 O   0  0  0  0  0  0  0  0  0  0  0  0
    3.3178   -1.3565   -0.1875 C   0  0  0  0  0  0  0  0  0  0  0  0
    2.5560   -1.4740    0.9750 C   0  0  0  0  0  0  0  0  0  0  0  0
    2.9038   -0.7135    2.0894 C   0  0  0  0  0  0  0  0  0  0  0  0
    4.0091    0.1210    2.0021 C   0  0  0  0  0  0  0  0  0  0  0  0
    4.3103    0.8590    3.1262 O   0  0  0  0  0  0  0  0  0  0  0  0
    5.4864    1.6666    2.9680 C   0  0  0  0  0  0  0  0  0  0  0  0
    5.7571    2.4518    4.2377 C   0  0  0  0  0  0  0  0  0  0  0  0
    4.7320    3.2799    4.5416 F   0  0  0  0  0  0  0  0  0  0  0  0
    5.9619    1.6381    5.2976 F   0  0  0  0  0  0  0  0  0  0  0  0
    6.8649    3.2183    4.0979 F   0  0  0  0  0  0  0  0  0  0  0  0
    4.7792    0.2374    0.8988 N   0  0  0  0  0  0  0  0  0  0  0  0
    4.4258   -0.5209   -0.1693 C   0  0  0  0  0  0  0  0  0  0  0  0
    1.5066   -3.0363   -3.0705 C   0  0  0  0  0  0  0  0  0  0  0  0
    0.0759   -3.5701   -3.1034 C   0  0  0  0  0  0  0  0  0  0  0  0
   -2.2265    1.5597   -1.1361 H   0  0  0  0  0  0  0  0  0  0  0  0
   -4.9646    2.7828   -1.3540 H   0  0  0  0  0  0  0  0  0  0  0  0
   -3.4611    3.6582   -1.0588 H   0  0  0  0  0  0  0  0  0  0  0  0
   -2.5521    3.8537    1.1971 H   0  0  0  0  0  0  0  0  0  0  0  0
   -2.8531    3.5122    3.6270 H   0  0  0  0  0  0  0  0  0  0  0  0
   -4.6469    1.9926    4.4569 H   0  0  0  0  0  0  0  0  0  0  0  0
   -5.8356    1.1514    0.4306 H   0  0  0  0  0  0  0  0  0  0  0  0
   -4.2559   -1.8093   -3.2631 H   0  0  0  0  0  0  0  0  0  0  0  0
   -2.5915   -3.5954   -3.7385 H   0  0  0  0  0  0  0  0  0  0  0  0
    0.8252   -0.6530   -0.7682 H   0  0  0  0  0  0  0  0  0  0  0  0
    1.2498   -0.2531   -2.4332 H   0  0  0  0  0  0  0  0  0  0  0  0
    1.7106   -2.1546    1.0220 H   0  0  0  0  0  0  0  0  0  0  0  0
    2.3321   -0.7753    3.0093 H   0  0  0  0  0  0  0  0  0  0  0  0
    6.3543    1.0285    2.7610 H   0  0  0  0  0  0  0  0  0  0  0  0
    5.3450    2.3781    2.1450 H   0  0  0  0  0  0  0  0  0  0  0  0
    5.0767   -0.4317   -1.0359 H   0  0  0  0  0  0  0  0  0  0  0  0
    1.7194   -2.4262   -3.9577 H   0  0  0  0  0  0  0  0  0  0  0  0
    2.2047   -3.8809   -3.0795 H   0  0  0  0  0  0  0  0  0  0  0  0
   -0.1007   -4.0586   -4.0686 H   0  0  0  0  0  0  0  0  0  0  0  0
   -0.0496   -4.3240   -2.3162 H   0  0  0  0  0  0  0  0  0  0  0  0
  1  2  2  0
  2  3  1  0
  3  4  1  0
  4  5  1  0
  5  6  2  0
  6  7  1  0
  7  8  2  0
  8  9  1  0
  9 10  1  0
  9 11  2  0
  2 12  1  0
 12 13  2  0
 13 14  1  0
 14 15  2  0
 15 16  1  0
 16 17  2  0
 16 18  1  0
 18 19  1  0
 19 20  1  0
 20 21  2  0
 20 22  1  0
 22 23  2  0
 23 24  1  0
 24 25  2  0
 25 26  1  0
 26 27  1  0
 27 28  1  0
 28 29  1  0
 28 30  1  0
 28 31  1  0
 25 32  1  0
 32 33  2  0
 19 34  1  0
 34 35  1  0
 11  5  1  0
 17 12  1  0
 33 22  1  0
 35 15  1  0
  3 36  1  0
  4 37  1  0
  4 38  1  0
  6 39  1  0
  7 40  1  0
  8 41  1  0
 11 42  1  0
 13 43  1  0
 14 44  1  0
 18 45  1  0
 18 46  1  0
 23 47  1  0
 24 48  1  0
 27 49  1  0
 27 50  1  0
 33 51  1  0
 34 52  1  0
 34 53  1  0
 35 54  1  0
 35 55  1  0
M  END
$$$$
C3
     RDKit          3D

 57 60  0  0  0  0  0  0  0  0999 V2000
    4.7137   -1.7893   -1.9856 O   0  0  0  0  0  0  0  0  0  0  0  0
    3.5266   -1.5110   -1.8637 C   0  0  0  0  0  0  0  0  0  0  0  0
    2.9543   -0.3488   -2.3333 N   0  0  0  0  0  0  0  0  0  0  0  0
    3.7319    0.7359   -2.8753 C   0  0  0  0  0  0  0  0  0  0  0  0
    4.0145    1.7722   -1.8284 C   0  0  0  0  0  0  0  0  0  0  0  0
    5.0894    1.6318   -0.9579 C   0  0  0  0  0  0  0  0  0  0  0  0
    5.3953    2.5164    0.0198 N   0  0  0  0  0  0  0  0  0  0  0  0
    4.5944    3.5982    0.1547 C   0  0  0  0  0  0  0  0  0  0  0  0
    4.9356    4.5739    1.2404 C   0  0  0  0  0  0  0  0  0  0  0  0
    3.4874    3.8156   -0.6595 C   0  0  0  0  0  0  0  0  0  0  0  0
    3.1958    2.8904   -1.6592 C   0  0  0  0  0  0  0  0  0  0  0  0
    2.5698   -2.4251   -1.1586 C   0  0  0  0  0  0  0  0  0  0  0  0
    3.0186   -3.6327   -0.6468 C   0  0  0  0  0  0  0  0  0  0  0  0
    2.1012   -4.4443    0.0105 C   0  0  0  0  0  0  0  0  0  0  0  0
    0.7704   -4.0304    0.1291 C   0  0  0  0  0  0  0  0  0  0  0  0
    0.4048   -2.7886   -0.4038 C   0  0  0  0  0  0  0  0  0  0  0  0
    1.2827   -1.9839   -1.0551 N   0  0  0  0  0  0  0  0  0  0  0  0
   -1.0212   -2.2874   -0.3066 C   0  0  0  0  0  0  0  0  0  0  0  0
   -1.8981   -3.0836    0.5616 N   0  0  0  0  0  0  0  0  0  0  0  0
   -3.2017   -2.6660    0.8479 C   0  0  0  0  0  0  0  0  0  0  0  0
   -4.1355   -3.4415    1.0359 O   0  0  0  0  0  0  0  0  0  0  0  0
   -3.4887   -1.2239    0.9567 C   0  0  0  0  0  0  0  0  0  0  0  0
   -2.7203   -0.3684    1.7466 C   0  0  0  0  0  0  0  0  0  0  0  0
   -3.0713    0.9778    1.8225 C   0  0  0  0  0  0  0  0  0  0  0  0
   -4.1876    1.4106    1.1211 C   0  0  0  0  0  0  0  0  0  0  0  0
   -4.4907    2.7513    1.2192 O   0  0  0  0  0  0  0  0  0  0  0  0
   -5.6914    3.1067    0.5171 C   0  0  0  0  0  0  0  0  0  0  0  0
   -5.9612    4.5931    0.6611 C   0  0  0  0  0  0  0  0  0  0  0  0
   -4.9667    5.3349    0.1235 F   0  0  0  0  0  0  0  0  0  0  0  0
   -7.1068    4.9344    0.0247 F   0  0  0  0  0  0  0  0  0  0  0  0
   -6.0973    4.9565    1.9560 F   0  0  0  0  0  0  0  0  0  0  0  0
   -4.9645    0.6014    0.3690 N   0  0  0  0  0  0  0  0  0  0  0  0
   -4.6071   -0.7064    0.3186 C   0  0  0  0  0  0  0  0  0  0  0  0
   -1.6681   -4.5253    0.5083 C   0  0  0  0  0  0  0  0  0  0  0  0
   -0.2274   -4.8702    0.8796 C   0  0  0  0  0  0  0  0  0  0  0  0
    1.9864   -0.1929   -2.0684 H   0  0  0  0  0  0  0  0  0  0  0  0
    3.1524    1.1732   -3.6964 H   0  0  0  0  0  0  0  0  0  0  0  0
    4.6678    0.3596   -3.3052 H   0  0  0  0  0  0  0  0  0  0  0  0
    5.7545    0.7729   -1.0202 H   0  0  0  0  0  0  0  0  0  0  0  0
    5.8644    4.2867    1.7437 H   0  0  0  0  0  0  0  0  0  0  0  0
    4.1358    4.6022    1.9870 H   0  0  0  0  0  0  0  0  0  0  0  0
    5.0729    5.5755    0.8208 H   0  0  0  0  0  0  0  0  0  0  0  0
    2.8608    4.6907   -0.5213 H   0  0  0  0  0  0  0  0  0  0  0  0
    2.3330    3.0481   -2.3005 H   0  0  0  0  0  0  0  0  0  0  0  0
    4.0570   -3.9311   -0.7508 H   0  0  0  0  0  0  0  0  0  0  0  0
    2.4283   -5.3925    0.4316 H   0  0  0  0  0  0  0  0  0  0  0  0
   -0.9965   -1.2476    0.0269 H   0  0  0  0  0  0  0  0  0  0  0  0
   -1.4643   -2.3020   -1.3103 H   0  0  0  0  0  0  0  0  0  0  0  0
   -1.8669   -0.7413    2.3061 H   0  0  0  0  0  0  0  0  0  0  0  0
   -2.4937    1.6734    2.4221 H   0  0  0  0  0  0  0  0  0  0  0  0
   -6.5442    2.5547    0.9314 H   0  0  0  0  0  0  0  0  0  0  0  0
   -5.5845    2.8772   -0.5506 H   0  0  0  0  0  0  0  0  0  0  0  0
   -5.2638   -1.3433   -0.2695 H   0  0  0  0  0  0  0  0  0  0  0  0
   -2.3489   -5.0483    1.1892 H   0  0  0  0  0  0  0  0  0  0  0  0
   -1.9032   -4.8594   -0.5103 H   0  0  0  0  0  0  0  0  0  0  0  0
   -0.0752   -4.6956    1.9521 H   0  0  0  0  0  0  0  0  0  0  0  0
   -0.0527   -5.9344    0.6836 H   0  0  0  0  0  0  0  0  0  0  0  0
  1  2  2  0
  2  3  1  0
  3  4  1  0
  4  5  1  0
  5  6  2  0
  6  7  1  0
  7  8  2  0
  8  9  1  0
  8 10  1  0
 10 11  2  0
  2 12  1  0
 12 13  2  0
 13 14  1  0
 14 15  2  0
 15 16  1  0
 16 17  2  0
 16 18  1  0
 18 19  1  0
 19 20  1  0
 20 21  2  0
 20 22  1  0
 22 23  2  0
 23 24  1  0
 24 25  2  0
 25 26  1  0
 26 27  1  0
 27 28  1  0
 28 29  1  0
 28 30  1  0
 28 31  1  0
 25 32  1  0
 32 33  2  0
 19 34  1  0
 34 35  1  0
 11  5  1  0
 17 12  1  0
 33 22  1  0
 35 15  1  0
  3 36  1  0
  4 37  1  0
  4 38  1  0
  6 39  1  0
  9 40  1  0
  9 41  1  0
  9 42  1  0
 10 43  1  0
 11 44  1  0
 13 45  1  0
 14 46  1  0
 18 47  1  0
 18 48  1  0
 23 49  1  0
 24 50  1  0
 27 51  1  0
 27 52  1  0
 33 53  1  0
 34 54  1  0
 34 55  1  0
 35 56  1  0
 35 57  1  0
M  END
$$$$
C4
     RDKit          3D

 62 66  0  0  0  0  0  0  0  0999 V2000
   -2.9353    0.7783    4.0891 O   0  0  0  0  0  0  0  0  0  0  0  0
   -2.3994    1.0316    3.0165 C   0  0  0  0  0  0  0  0  0  0  0  0
   -2.9444    1.8469    2.0495 N   0  0  0  0  0  0  0  0  0  0  0  0
   -4.2774    2.3835    2.1372 C   0  0  0  0  0  0  0  0  0  0  0  0
   -5.2530    1.5276    1.3720 C   0  0  0  0  0  0  0  0  0  0  0  0
   -5.5528    1.8011    0.0333 C   0  0  0  0  0  0  0  0  0  0  0  0
   -6.4435    0.9904   -0.6799 C   0  0  0  0  0  0  0  0  0  0  0  0
   -7.0461   -0.1168   -0.0646 C   0  0  0  0  0  0  0  0  0  0  0  0
   -7.9554   -0.9444   -0.7865 N   0  0  0  0  0  0  0  0  0  0  0  0
   -8.6242   -2.0600   -0.3247 C   0  0  0  0  0  0  0  0  0  0  0  0
   -9.3836   -2.5176   -1.3750 C   0  0  0  0  0  0  0  0  0  0  0  0
   -9.2120   -1.7306   -2.4750 N   0  0  0  0  0  0  0  0  0  0  0  0
   -8.3583   -0.8032   -2.0990 C   0  0  0  0  0  0  0  0  0  0  0  0
   -6.7364   -0.3983    1.2733 C   0  0  0  0  0  0  0  0  0  0  0  0
   -5.8452    0.4154    1.9806 C   0  0  0  0  0  0  0  0  0  0  0  0
   -1.0664    0.4527    2.6469 C   0  0  0  0  0  0  0  0  0  0  0  0
   -0.3822   -0.3427    3.5530 C   0  0  0  0  0  0  0  0  0  0  0  0
    0.8523   -0.8544    3.1705 C   0  0  0  0  0  0  0  0  0  0  0  0
    1.3577   -0.5667    1.8981 C   0  0  0  0  0  0  0  0  0  0  0  0
    0.6061    0.2554    1.0476 C   0  0  0  0  0  0  0  0  0  0  0  0
   -0.6024    0.7610    1.4021 N   0  0  0  0  0  0  0  0  0  0  0  0
    1.0972    0.5900   -0.3469 C   0  0  0  0  0  0  0  0  0  0  0  0
    2.4848    0.2047   -0.6090 N   0  0  0  0  0  0  0  0  0  0  0  0
    3.0503    0.7224   -1.7739 C   0  0  0  0  0  0  0  0  0  0  0  0
    2.4325    1.4250   -2.5690 O   0  0  0  0  0  0  0  0  0  0  0  0
    4.4683    0.4475   -2.0638 C   0  0  0  0  0  0  0  0  0  0  0  0
    4.8625    0.0369   -3.3354 C   0  0  0  0  0  0  0  0  0  0  0  0
    6.2145   -0.1942   -3.5807 C   0  0  0  0  0  0  0  0  0  0  0  0
    7.1171    0.0054   -2.5465 C   0  0  0  0  0  0  0  0  0  0  0  0
    8.4420   -0.2441   -2.8302 O   0  0  0  0  0  0  0  0  0  0  0  0
    9.3070   -0.1805   -1.6863 C   0  0  0  0  0  0  0  0  0  0  0  0
    9.3245   -1.4672   -0.8721 C   0  0  0  0  0  0  0  0  0  0  0  0
    8.1379   -1.7750   -0.3101 F   0  0  0  0  0  0  0  0  0  0  0  0
   10.2298   -1.3717    0.1335 F   0  0  0  0  0  0  0  0  0  0  0  0
    9.6977   -2.5208   -1.6377 F   0  0  0  0  0  0  0  0  0  0  0  0
    6.7684    0.4361   -1.3160 N   0  0  0  0  0  0  0  0  0  0  0  0
    5.4485    0.6611   -1.1052 C   0  0  0  0  0  0  0  0  0  0  0  0
    2.8842   -1.0820   -0.0345 C   0  0  0  0  0  0  0  0  0  0  0  0
    2.7125   -1.0759    1.4830 C   0  0  0  0  0  0  0  0  0  0  0  0
   -2.4432    1.8848    1.1667 H   0  0  0  0  0  0  0  0  0  0  0  0
   -4.2523    3.3971    1.7219 H   0  0  0  0  0  0  0  0  0  0  0  0
   -4.5874    2.4699    3.1848 H   0  0  0  0  0  0  0  0  0  0  0  0
   -5.0927    2.6503   -0.4682 H   0  0  0  0  0  0  0  0  0  0  0  0
   -6.6363    1.2587   -1.7139 H   0  0  0  0  0  0  0  0  0  0  0  0
   -8.5220   -2.4394    0.6794 H   0  0  0  0  0  0  0  0  0  0  0  0
  -10.0447   -3.3749   -1.3913 H   0  0  0  0  0  0  0  0  0  0  0  0
   -8.0073   -0.0122   -2.7454 H   0  0  0  0  0  0  0  0  0  0  0  0
   -7.1631   -1.2438    1.8037 H   0  0  0  0  0  0  0  0  0  0  0  0
   -5.6066    0.1729    3.0160 H   0  0  0  0  0  0  0  0  0  0  0  0
   -0.7969   -0.5531    4.5336 H   0  0  0  0  0  0  0  0  0  0  0  0
    1.4156   -1.4722    3.8662 H   0  0  0  0  0  0  0  0  0  0  0  0
    0.4647    0.0676   -1.0753 H   0  0  0  0  0  0  0  0  0  0  0  0
    0.9908    1.6683   -0.5151 H   0  0  0  0  0  0  0  0  0  0  0  0
    4.1279   -0.0991   -4.1243 H   0  0  0  0  0  0  0  0  0  0  0  0
    6.5565   -0.5223   -4.5565 H   0  0  0  0  0  0  0  0  0  0  0  0
    9.1073    0.6972   -1.0591 H   0  0  0  0  0  0  0  0  0  0  0  0
   10.3157   -0.0253   -2.0864 H   0  0  0  0  0  0  0  0  0  0  0  0
    5.1989    1.0300   -0.1144 H   0  0  0  0  0  0  0  0  0  0  0  0
    3.9123   -1.3460   -0.2914 H   0  0  0  0  0  0  0  0  0  0  0  0
    2.2448   -1.8476   -0.4929 H   0  0  0  0  0  0  0  0  0  0  0  0
    3.4712   -0.4246    1.9337 H   0  0  0  0  0  0  0  0  0  0  0  0
    2.8692   -2.0913    1.8641 H   0  0  0  0  0  0  0  0  0  0  0  0
  1  2  2  0
  2  3  1  0
  3  4  1  0
  4  5  1  0
  5  6  2  0
  6  7  1  0
  7  8  2  0
  8  9  1  0
  9 10  1  0
 10 11  2  0
 11 12  1  0
 12 13  2  0
  8 14  1  0
 14 15  2  0
  2 16  1  0
 16 17  2  0
 17 18  1  0
 18 19  2  0
 19 20  1  0
 20 21  2  0
 20 22  1  0
 22 23  1  0
 23 24  1  0
 24 25  2  0
 24 26  1  0
 26 27  2  0
 27 28  1  0
 28 29  2  0
 29 30  1  0
 30 31  1  0
 31 32  1  0
 32 33  1  0
 32 34  1  0
 32 35  1  0
 29 36  1  0
 36 37  2  0
 23 38  1  0
 38 39  1  0
 15  5  1  0
 21 16  1  0
 37 26  1  0
 13  9  1  0
 39 19  1  0
  3 40  1  0
  4 41  1  0
  4 42  1  0
  6 43  1  0
  7 44  1  0
 10 45  1  0
 11 46  1  0
 13 47  1  0
 14 48  1  0
 15 49  1  0
 17 50  1  0
 18 51  1  0
 22 52  1  0
 22 53  1  0
 27 54  1  0
 28 55  1  0
 31 56  1  0
 31 57  1  0
 37 58  1  0
 38 59  1  0
 38 60  1  0
 39 61  1  0
 39 62  1  0
M  END
$$$$
D1
     RDKit          3D

 58 61  0  0  0  0  0  0  0  0999 V2000
    4.3567   -1.9413    2.3119 O   0  0  0  0  0  0  0  0  0  0  0  0
    3.6781   -1.2001    1.6106 C   0  0  0  0  0  0  0  0  0  0  0  0
    4.1895   -0.1497    0.8743 N   0  0  0  0  0  0  0  0  0  0  0  0
    5.6124    0.0799    0.7254 C   0  0  0  0  0  0  0  0  0  0  0  0
    5.8831    1.5570    0.4180 C   0  0  0  0  0  0  0  0  0  0  0  0
    7.3703    1.8220    0.2011 C   0  0  0  0  0  0  0  0  0  0  0  0
    7.9457    0.9066   -0.8660 C   0  0  0  0  0  0  0  0  0  0  0  0
    7.4072    1.2346   -2.0694 F   0  0  0  0  0  0  0  0  0  0  0  0
    9.2806    1.1162   -0.9707 F   0  0  0  0  0  0  0  0  0  0  0  0
    7.6823   -0.5630   -0.5866 C   0  0  0  0  0  0  0  0  0  0  0  0
    6.1963   -0.8310   -0.3644 C   0  0  0  0  0  0  0  0  0  0  0  0
    2.1964   -1.3833    1.4732 C   0  0  0  0  0  0  0  0  0  0  0  0
    1.5515   -2.3699    2.2027 C   0  0  0  0  0  0  0  0  0  0  0  0
    0.1793   -2.5138    2.0352 C   0  0  0  0  0  0  0  0  0  0  0  0
   -0.5004   -1.6793    1.1417 C   0  0  0  0  0  0  0  0  0  0  0  0
    0.2251   -0.6952    0.4565 C   0  0  0  0  0  0  0  0  0  0  0  0
    1.5662   -0.5444    0.6020 N   0  0  0  0  0  0  0  0  0  0  0  0
   -0.4589    0.2359   -0.5257 C   0  0  0  0  0  0  0  0  0  0  0  0
   -1.9209    0.1519   -0.5295 N   0  0  0  0  0  0  0  0  0  0  0  0
   -2.5880    1.1587   -1.2269 C   0  0  0  0  0  0  0  0  0  0  0  0
   -2.0108    2.0637   -1.8235 O   0  0  0  0  0  0  0  0  0  0  0  0
   -4.0604    1.1654   -1.2398 C   0  0  0  0  0  0  0  0  0  0  0  0
   -4.7553    1.2978   -2.4400 C   0  0  0  0  0  0  0  0  0  0  0  0
   -6.1481    1.3058   -2.4141 C   0  0  0  0  0  0  0  0  0  0  0  0
   -6.7866    1.1898   -1.1874 C   0  0  0  0  0  0  0  0  0  0  0  0
   -8.1637    1.1790   -1.2095 O   0  0  0  0  0  0  0  0  0  0  0  0
   -8.7664    0.8597    0.0537 C   0  0  0  0  0  0  0  0  0  0  0  0
   -8.8129   -0.6351    0.3423 C   0  0  0  0  0  0  0  0  0  0  0  0
   -9.4514   -1.3035   -0.6486 F   0  0  0  0  0  0  0  0  0  0  0  0
   -9.5073   -0.8682    1.4839 F   0  0  0  0  0  0  0  0  0  0  0  0
   -7.5978   -1.2010    0.4956 F   0  0  0  0  0  0  0  0  0  0  0  0
   -6.1391    1.1008   -0.0064 N   0  0  0  0  0  0  0  0  0  0  0  0
   -4.7850    1.1037   -0.0578 C   0  0  0  0  0  0  0  0  0  0  0  0
   -2.4626   -1.1974   -0.3519 C   0  0  0  0  0  0  0  0  0  0  0  0
   -1.9911   -1.8000    0.9698 C   0  0  0  0  0  0  0  0  0  0  0  0
    3.5263    0.2990    0.2449 H   0  0  0  0  0  0  0  0  0  0  0  0
    6.0924   -0.1731    1.6800 H   0  0  0  0  0  0  0  0  0  0  0  0
    5.5149    2.1841    1.2392 H   0  0  0  0  0  0  0  0  0  0  0  0
    5.3246    1.8609   -0.4774 H   0  0  0  0  0  0  0  0  0  0  0  0
    7.9174    1.6824    1.1414 H   0  0  0  0  0  0  0  0  0  0  0  0
    7.5144    2.8673   -0.0951 H   0  0  0  0  0  0  0  0  0  0  0  0
    8.0392   -1.1667   -1.4291 H   0  0  0  0  0  0  0  0  0  0  0  0
    8.2557   -0.8799    0.2933 H   0  0  0  0  0  0  0  0  0  0  0  0
    5.6527   -0.6773   -1.3060 H   0  0  0  0  0  0  0  0  0  0  0  0
    6.0540   -1.8845   -0.0952 H   0  0  0  0  0  0  0  0  0  0  0  0
    2.1033   -3.0087    2.8848 H   0  0  0  0  0  0  0  0  0  0  0  0
   -0.3533   -3.2751    2.6004 H   0  0  0  0  0  0  0  0  0  0  0  0
   -0.1641    1.2685   -0.3046 H   0  0  0  0  0  0  0  0  0  0  0  0
   -0.1119   -0.0080   -1.5374 H   0  0  0  0  0  0  0  0  0  0  0  0
   -4.2201    1.3925   -3.3816 H   0  0  0  0  0  0  0  0  0  0  0  0
   -6.7224    1.3961   -3.3296 H   0  0  0  0  0  0  0  0  0  0  0  0
   -9.8005    1.2176   -0.0141 H   0  0  0  0  0  0  0  0  0  0  0  0
   -8.3191    1.4221    0.8824 H   0  0  0  0  0  0  0  0  0  0  0  0
   -4.2887    1.0512    0.9072 H   0  0  0  0  0  0  0  0  0  0  0  0
   -2.1084   -1.7980   -1.2001 H   0  0  0  0  0  0  0  0  0  0  0  0
   -3.5535   -1.2129   -0.3975 H   0  0  0  0  0  0  0  0  0  0  0  0
   -2.4731   -1.2769    1.8050 H   0  0  0  0  0  0  0  0  0  0  0  0
   -2.2935   -2.8528    1.0097 H   0  0  0  0  0  0  0  0  0  0  0  0
  1  2  2  0
  2  3  1  0
  3  4  1  0
  4  5  1  0
  5  6  1  0
  6  7  1  0
  7  8  1  0
  7  9  1  0
  7 10  1  0
 10 11  1  0
  2 12  1  0
 12 13  2  0
 13 14  1  0
 14 15  2  0
 15 16  1  0
 16 17  2  0
 16 18  1  0
 18 19  1  0
 19 20  1  0
 20 21  2  0
 20 22  1  0
 22 23  2  0
 23 24  1  0
 24 25  2  0
 25 26  1  0
 26 27  1  0
 27 28  1  0
 28 29  1  0
 28 30  1  0
 28 31  1  0
 25 32  1  0
 32 33  2  0
 19 34  1  0
 34 35  1  0
 11  4  1  0
 17 12  1  0
 33 22  1  0
 35 15  1  0
  3 36  1  0
  4 37  1  0
  5 38  1  0
  5 39  1  0
  6 40  1  0
  6 41  1  0
 10 42  1  0
 10 43  1  0
 11 44  1  0
 11 45  1  0
 13 46  1  0
 14 47  1  0
 18 48  1  0
 18 49  1  0
 23 50  1  0
 24 51  1  0
 27 52  1  0
 27 53  1  0
 33 54  1  0
 34 55  1  0
 34 56  1  0
 35 57  1  0
 35 58  1  0
M  END
$$$$
D2
     RDKit          3D

 52 55  0  0  0  0  0  0  0  0999 V2000
   -3.5588   -1.3727   -2.3374 O   0  0  0  0  0  0  0  0  0  0  0  0
   -2.7993   -0.7675   -1.5906 C   0  0  0  0  0  0  0  0  0  0  0  0
   -3.2123    0.0087   -0.5260 N   0  0  0  0  0  0  0  0  0  0  0  0
   -4.5932    0.0691   -0.0882 C   0  0  0  0  0  0  0  0  0  0  0  0
   -4.9618   -1.1860    0.7237 C   0  0  0  0  0  0  0  0  0  0  0  0
   -6.1413   -0.9828    1.6782 C   0  0  0  0  0  0  0  0  0  0  0  0
   -7.0362    0.1606    1.2441 C   0  0  0  0  0  0  0  0  0  0  0  0
   -7.5621   -0.1304    0.0261 F   0  0  0  0  0  0  0  0  0  0  0  0
   -8.0847    0.2770    2.0947 F   0  0  0  0  0  0  0  0  0  0  0  0
   -6.2979    1.4888    1.1658 C   0  0  0  0  0  0  0  0  0  0  0  0
   -4.8412    1.3454    0.7177 C   0  0  0  0  0  0  0  0  0  0  0  0
   -1.3112   -0.8299   -1.7624 C   0  0  0  0  0  0  0  0  0  0  0  0
   -0.7665   -1.5476   -2.8159 C   0  0  0  0  0  0  0  0  0  0  0  0
    0.6179   -1.5828   -2.9351 C   0  0  0  0  0  0  0  0  0  0  0  0
    1.4105   -0.8980   -2.0079 C   0  0  0  0  0  0  0  0  0  0  0  0
    0.7791   -0.2118   -0.9612 C   0  0  0  0  0  0  0  0  0  0  0  0
   -0.5713   -0.1612   -0.8321 N   0  0  0  0  0  0  0  0  0  0  0  0
    1.5879    0.5506    0.0702 C   0  0  0  0  0  0  0  0  0  0  0  0
    3.0300    0.3132    0.0060 N   0  0  0  0  0  0  0  0  0  0  0  0
    3.7742    0.7770    1.0903 C   0  0  0  0  0  0  0  0  0  0  0  0
    3.2785    1.3780    2.0400 O   0  0  0  0  0  0  0  0  0  0  0  0
    5.2305    0.5107    1.1265 C   0  0  0  0  0  0  0  0  0  0  0  0
    5.7233   -0.7881    0.9374 C   0  0  0  0  0  0  0  0  0  0  0  0
    7.0976   -1.0208    1.0058 C   0  0  0  0  0  0  0  0  0  0  0  0
    7.9606    0.0375    1.2769 C   0  0  0  0  0  0  0  0  0  0  0  0
    9.2787   -0.1897    1.3418 F   0  0  0  0  0  0  0  0  0  0  0  0
    7.4771    1.3252    1.4904 C   0  0  0  0  0  0  0  0  0  0  0  0
    6.1038    1.5642    1.4239 C   0  0  0  0  0  0  0  0  0  0  0  0
    3.5766    0.1952   -1.3459 C   0  0  0  0  0  0  0  0  0  0  0  0
    2.9123   -0.9554   -2.0992 C   0  0  0  0  0  0  0  0  0  0  0  0
   -2.4635    0.3488    0.0742 H   0  0  0  0  0  0  0  0  0  0  0  0
   -5.2190    0.0973   -0.9898 H   0  0  0  0  0  0  0  0  0  0  0  0
   -4.1009   -1.5380    1.3072 H   0  0  0  0  0  0  0  0  0  0  0  0
   -5.1952   -1.9992    0.0243 H   0  0  0  0  0  0  0  0  0  0  0  0
   -5.7685   -0.7836    2.6907 H   0  0  0  0  0  0  0  0  0  0  0  0
   -6.7206   -1.9108    1.7457 H   0  0  0  0  0  0  0  0  0  0  0  0
   -6.8278    2.1414    0.4614 H   0  0  0  0  0  0  0  0  0  0  0  0
   -6.3257    1.9967    2.1370 H   0  0  0  0  0  0  0  0  0  0  0  0
   -4.1959    1.3404    1.6068 H   0  0  0  0  0  0  0  0  0  0  0  0
   -4.5464    2.2311    0.1411 H   0  0  0  0  0  0  0  0  0  0  0  0
   -1.4041   -2.0679   -3.5235 H   0  0  0  0  0  0  0  0  0  0  0  0
    1.0718   -2.1444   -3.7483 H   0  0  0  0  0  0  0  0  0  0  0  0
    1.2287    0.2871    1.0721 H   0  0  0  0  0  0  0  0  0  0  0  0
    1.4221    1.6247   -0.0794 H   0  0  0  0  0  0  0  0  0  0  0  0
    5.0422   -1.6148    0.7525 H   0  0  0  0  0  0  0  0  0  0  0  0
    7.5014   -2.0182    0.8616 H   0  0  0  0  0  0  0  0  0  0  0  0
    8.1702    2.1297    1.7163 H   0  0  0  0  0  0  0  0  0  0  0  0
    5.7139    2.5628    1.6086 H   0  0  0  0  0  0  0  0  0  0  0  0
    4.6602    0.0609   -1.3433 H   0  0  0  0  0  0  0  0  0  0  0  0
    3.3849    1.1505   -1.8521 H   0  0  0  0  0  0  0  0  0  0  0  0
    3.2298   -0.9257   -3.1479 H   0  0  0  0  0  0  0  0  0  0  0  0
    3.2416   -1.9111   -1.6728 H   0  0  0  0  0  0  0  0  0  0  0  0
  1  2  2  0
  2  3  1  0
  3  4  1  0
  4  5  1  0
  5  6  1  0
  6  7  1  0
  7  8  1  0
  7  9  1  0
  7 10  1  0
 10 11  1  0
  2 12  1  0
 12 13  2  0
 13 14  1  0
 14 15  2  0
 15 16  1  0
 16 17  2  0
 16 18  1  0
 18 19  1  0
 19 20  1  0
 20 21  2  0
 20 22  1  0
 22 23  2  0
 23 24  1  0
 24 25  2  0
 25 26  1  0
 25 27  1  0
 27 28  2  0
 19 29  1  0
 29 30  1  0
 11  4  1  0
 17 12  1  0
 28 22  1  0
 30 15  1  0
  3 31  1  0
  4 32  1  0
  5 33  1  0
  5 34  1  0
  6 35  1  0
  6 36  1  0
 10 37  1  0
 10 38  1  0
 11 39  1  0
 11 40  1  0
 13 41  1  0
 14 42  1  0
 18 43  1  0
 18 44  1  0
 23 45  1  0
 24 46  1  0
 27 47  1  0
 28 48  1  0
 29 49  1  0
 29 50  1  0
 30 51  1  0
 30 52  1  0
M  END
$$$$
E1
     RDKit          3D

 50 53  0  0  0  0  0  0  0  0999 V2000
   -5.6263    3.6844   -0.8361 C   0  0  0  0  0  0  0  0  0  0  0  0
   -5.1407    2.4959   -0.0687 C   0  0  0  0  0  0  0  0  0  0  0  0
   -5.2482    1.2152   -0.5963 C   0  0  0  0  0  0  0  0  0  0  0  0
   -4.8213    0.1101    0.0600 N   0  0  0  0  0  0  0  0  0  0  0  0
   -4.2854    0.3219    1.2910 C   0  0  0  0  0  0  0  0  0  0  0  0
   -3.7670   -0.8655    2.0535 C   0  0  0  0  0  0  0  0  0  0  0  0
   -2.3525   -1.0606    1.8439 N   0  0  0  0  0  0  0  0  0  0  0  0
   -1.6192   -1.9123    2.6391 C   0  0  0  0  0  0  0  0  0  0  0  0
   -2.0375   -2.4005    3.6816 O   0  0  0  0  0  0  0  0  0  0  0  0
   -0.2524   -2.2250    2.1077 C   0  0  0  0  0  0  0  0  0  0  0  0
    0.5738   -3.0983    2.7969 C   0  0  0  0  0  0  0  0  0  0  0  0
    1.8211   -3.3880    2.2530 C   0  0  0  0  0  0  0  0  0  0  0  0
    2.1991   -2.8058    1.0404 C   0  0  0  0  0  0  0  0  0  0  0  0
    1.3093   -1.9104    0.4218 C   0  0  0  0  0  0  0  0  0  0  0  0
    0.0832   -1.6276    0.9291 N   0  0  0  0  0  0  0  0  0  0  0  0
    1.6664   -1.2485   -0.8997 C   0  0  0  0  0  0  0  0  0  0  0  0
    3.0977   -1.3457   -1.2066 N   0  0  0  0  0  0  0  0  0  0  0  0
    3.9779   -0.2723   -1.0529 C   0  0  0  0  0  0  0  0  0  0  0  0
    5.1652   -0.4091   -0.7661 O   0  0  0  0  0  0  0  0  0  0  0  0
    3.4738    1.1060   -1.2521 C   0  0  0  0  0  0  0  0  0  0  0  0
    2.7573    1.4508   -2.4069 C   0  0  0  0  0  0  0  0  0  0  0  0
    2.3122    2.7626   -2.5771 C   0  0  0  0  0  0  0  0  0  0  0  0
    2.5998    3.7156   -1.6043 C   0  0  0  0  0  0  0  0  0  0  0  0
    2.1772    4.9753   -1.7720 F   0  0  0  0  0  0  0  0  0  0  0  0
    3.3285    3.3861   -0.4653 C   0  0  0  0  0  0  0  0  0  0  0  0
    3.7754    2.0765   -0.2899 C   0  0  0  0  0  0  0  0  0  0  0  0
    3.6390   -2.6889   -1.0232 C   0  0  0  0  0  0  0  0  0  0  0  0
    3.5644   -3.0858    0.4536 C   0  0  0  0  0  0  0  0  0  0  0  0
   -4.1695    1.6036    1.8133 C   0  0  0  0  0  0  0  0  0  0  0  0
   -4.5976    2.7083    1.1539 N   0  0  0  0  0  0  0  0  0  0  0  0
   -5.1715    3.7014   -1.8317 H   0  0  0  0  0  0  0  0  0  0  0  0
   -6.7133    3.6474   -0.9401 H   0  0  0  0  0  0  0  0  0  0  0  0
   -5.3617    4.6136   -0.3210 H   0  0  0  0  0  0  0  0  0  0  0  0
   -5.6801    1.0386   -1.5773 H   0  0  0  0  0  0  0  0  0  0  0  0
   -3.9759   -0.7654    3.1239 H   0  0  0  0  0  0  0  0  0  0  0  0
   -4.2764   -1.7765    1.7149 H   0  0  0  0  0  0  0  0  0  0  0  0
   -1.9596   -0.8687    0.9248 H   0  0  0  0  0  0  0  0  0  0  0  0
    0.2541   -3.5471    3.7329 H   0  0  0  0  0  0  0  0  0  0  0  0
    2.4935   -4.0633    2.7762 H   0  0  0  0  0  0  0  0  0  0  0  0
    1.3240   -0.2125   -0.8686 H   0  0  0  0  0  0  0  0  0  0  0  0
    1.1272   -1.7668   -1.7005 H   0  0  0  0  0  0  0  0  0  0  0  0
    2.5563    0.7084   -3.1750 H   0  0  0  0  0  0  0  0  0  0  0  0
    1.7554    3.0548   -3.4609 H   0  0  0  0  0  0  0  0  0  0  0  0
    3.5527    4.1516    0.2727 H   0  0  0  0  0  0  0  0  0  0  0  0
    4.3591    1.8122    0.5888 H   0  0  0  0  0  0  0  0  0  0  0  0
    3.0454   -3.3746   -1.6414 H   0  0  0  0  0  0  0  0  0  0  0  0
    4.6745   -2.7404   -1.3787 H   0  0  0  0  0  0  0  0  0  0  0  0
    4.3033   -2.5143    1.0306 H   0  0  0  0  0  0  0  0  0  0  0  0
    3.8078   -4.1504    0.5515 H   0  0  0  0  0  0  0  0  0  0  0  0
   -3.7186    1.7841    2.7827 H   0  0  0  0  0  0  0  0  0  0  0  0
  1  2  1  0
  2  3  2  0
  3  4  1  0
  4  5  2  0
  5  6  1  0
  6  7  1  0
  7  8  1  0
  8  9  2  0
  8 10  1  0
 10 11  2  0
 11 12  1  0
 12 13  2  0
 13 14  1  0
 14 15  2  0
 14 16  1  0
 16 17  1  0
 17 18  1  0
 18 19  2  0
 18 20  1  0
 20 21  2  0
 21 22  1  0
 22 23  2  0
 23 24  1  0
 23 25  1  0
 25 26  2  0
 17 27  1  0
 27 28  1  0
  5 29  1  0
 29 30  2  0
 30  2  1  0
 15 10  1  0
 26 20  1  0
 28 13  1  0
  1 31  1  0
  1 32  1  0
  1 33  1  0
  3 34  1  0
  6 35  1  0
  6 36  1  0
  7 37  1  0
 11 38  1  0
 12 39  1  0
 16 40  1  0
 16 41  1  0
 21 42  1  0
 22 43  1  0
 25 44  1  0
 26 45  1  0
 27 46  1  0
 27 47  1  0
 28 48  1  0
 28 49  1  0
 29 50  1  0
M  END
$$$$
E2
     RDKit          3D

 56 59  0  0  0  0  0  0  0  0999 V2000
   -8.2036    2.9183    2.0894 C   0  0  0  0  0  0  0  0  0  0  0  0
   -7.5722    1.6878    1.5200 C   0  0  0  0  0  0  0  0  0  0  0  0
   -6.9166    0.7803    2.3444 C   0  0  0  0  0  0  0  0  0  0  0  0
   -6.3300   -0.3485    1.8806 N   0  0  0  0  0  0  0  0  0  0  0  0
   -6.4218   -0.5522    0.5395 C   0  0  0  0  0  0  0  0  0  0  0  0
   -5.7667   -1.7781   -0.0392 C   0  0  0  0  0  0  0  0  0  0  0  0
   -4.4133   -1.5158   -0.4707 N   0  0  0  0  0  0  0  0  0  0  0  0
   -4.1167   -1.0669   -1.7377 C   0  0  0  0  0  0  0  0  0  0  0  0
   -4.9433   -0.9814   -2.6388 O   0  0  0  0  0  0  0  0  0  0  0  0
   -2.6874   -0.6601   -1.9327 C   0  0  0  0  0  0  0  0  0  0  0  0
   -2.2592   -0.2159   -3.1740 C   0  0  0  0  0  0  0  0  0  0  0  0
   -0.9279    0.1599   -3.3094 C   0  0  0  0  0  0  0  0  0  0  0  0
   -0.0727    0.0898   -2.2045 C   0  0  0  0  0  0  0  0  0  0  0  0
   -0.5836   -0.3861   -0.9891 C   0  0  0  0  0  0  0  0  0  0  0  0
   -1.8819   -0.7509   -0.8372 N   0  0  0  0  0  0  0  0  0  0  0  0
    0.2952   -0.4780    0.2433 C   0  0  0  0  0  0  0  0  0  0  0  0
    1.7211   -0.2661   -0.0132 N   0  0  0  0  0  0  0  0  0  0  0  0
    2.5847   -0.5960    1.0310 C   0  0  0  0  0  0  0  0  0  0  0  0
    2.1970   -0.9969    2.1252 O   0  0  0  0  0  0  0  0  0  0  0  0
    4.0398   -0.5007    0.8164 C   0  0  0  0  0  0  0  0  0  0  0  0
    4.6622   -1.0376   -0.3110 C   0  0  0  0  0  0  0  0  0  0  0  0
    6.0465   -0.9344   -0.4303 C   0  0  0  0  0  0  0  0  0  0  0  0
    6.7527   -0.3066    0.5858 C   0  0  0  0  0  0  0  0  0  0  0  0
    8.1181   -0.2237    0.4243 O   0  0  0  0  0  0  0  0  0  0  0  0
    8.7765    0.5786    1.4167 C   0  0  0  0  0  0  0  0  0  0  0  0
    8.7406    2.0682    1.1050 C   0  0  0  0  0  0  0  0  0  0  0  0
    9.2893    2.3224   -0.1079 F   0  0  0  0  0  0  0  0  0  0  0  0
    9.4716    2.7552    2.0179 F   0  0  0  0  0  0  0  0  0  0  0  0
    7.5004    2.5972    1.1065 F   0  0  0  0  0  0  0  0  0  0  0  0
    6.1815    0.1930    1.7005 N   0  0  0  0  0  0  0  0  0  0  0  0
    4.8339    0.0728    1.7990 C   0  0  0  0  0  0  0  0  0  0  0  0
    2.0195    0.7805   -0.9918 C   0  0  0  0  0  0  0  0  0  0  0  0
    1.3808    0.4579   -2.3412 C   0  0  0  0  0  0  0  0  0  0  0  0
   -7.0658    0.3639   -0.2859 C   0  0  0  0  0  0  0  0  0  0  0  0
   -7.6557    1.4908    0.1827 N   0  0  0  0  0  0  0  0  0  0  0  0
   -7.4447    3.5486    2.5635 H   0  0  0  0  0  0  0  0  0  0  0  0
   -8.6916    3.5048    1.3042 H   0  0  0  0  0  0  0  0  0  0  0  0
   -8.9608    2.6474    2.8316 H   0  0  0  0  0  0  0  0  0  0  0  0
   -6.8434    0.9364    3.4154 H   0  0  0  0  0  0  0  0  0  0  0  0
   -6.3591   -2.1696   -0.8738 H   0  0  0  0  0  0  0  0  0  0  0  0
   -5.7142   -2.5611    0.7250 H   0  0  0  0  0  0  0  0  0  0  0  0
   -3.6849   -1.4054    0.2304 H   0  0  0  0  0  0  0  0  0  0  0  0
   -2.9440   -0.1650   -4.0144 H   0  0  0  0  0  0  0  0  0  0  0  0
   -0.5636    0.5053   -4.2741 H   0  0  0  0  0  0  0  0  0  0  0  0
   -0.0293    0.2840    0.9627 H   0  0  0  0  0  0  0  0  0  0  0  0
    0.1611   -1.4627    0.7065 H   0  0  0  0  0  0  0  0  0  0  0  0
    4.0838   -1.5417   -1.0797 H   0  0  0  0  0  0  0  0  0  0  0  0
    6.5653   -1.3377   -1.2931 H   0  0  0  0  0  0  0  0  0  0  0  0
    8.4220    0.3644    2.4322 H   0  0  0  0  0  0  0  0  0  0  0  0
    9.8257    0.2612    1.4046 H   0  0  0  0  0  0  0  0  0  0  0  0
    4.3997    0.4661    2.7150 H   0  0  0  0  0  0  0  0  0  0  0  0
    3.0932    0.9356   -1.1157 H   0  0  0  0  0  0  0  0  0  0  0  0
    1.6172    1.7191   -0.5881 H   0  0  0  0  0  0  0  0  0  0  0  0
    1.4921    1.3233   -3.0046 H   0  0  0  0  0  0  0  0  0  0  0  0
    1.9036   -0.3902   -2.8004 H   0  0  0  0  0  0  0  0  0  0  0  0
   -7.1213    0.2186   -1.3607 H   0  0  0  0  0  0  0  0  0  0  0  0
  1  2  1  0
  2  3  2  0
  3  4  1  0
  4  5  2  0
  5  6  1  0
  6  7  1  0
  7  8  1  0
  8  9  2  0
  8 10  1  0
 10 11  2  0
 11 12  1  0
 12 13  2  0
 13 14  1  0
 14 15  2  0
 14 16  1  0
 16 17  1  0
 17 18  1  0
 18 19  2  0
 18 20  1  0
 20 21  2  0
 21 22  1  0
 22 23  2  0
 23 24  1  0
 24 25  1  0
 25 26  1  0
 26 27  1  0
 26 28  1  0
 26 29  1  0
 23 30  1  0
 30 31  2  0
 17 32  1  0
 32 33  1  0
  5 34  1  0
 34 35  2  0
 35  2  1  0
 15 10  1  0
 31 20  1  0
 33 13  1  0
  1 36  1  0
  1 37  1  0
  1 38  1  0
  3 39  1  0
  6 40  1  0
  6 41  1  0
  7 42  1  0
 11 43  1  0
 12 44  1  0
 16 45  1  0
 16 46  1  0
 21 47  1  0
 22 48  1  0
 25 49  1  0
 25 50  1  0
 31 51  1  0
 32 52  1  0
 32 53  1  0
 33 54  1  0
 33 55  1  0
 34 56  1  0
M  END
$$$$
E3
     RDKit          3D

 47 50  0  0  0  0  0  0  0  0999 V2000
    6.0855    2.0562   -2.5195 C   0  0  0  0  0  0  0  0  0  0  0  0
    5.4160    0.9378   -1.7901 C   0  0  0  0  0  0  0  0  0  0  0  0
    5.6471    0.7429   -0.4312 C   0  0  0  0  0  0  0  0  0  0  0  0
    5.0603   -0.2482    0.2841 N   0  0  0  0  0  0  0  0  0  0  0  0
    4.2246   -1.0635   -0.4092 C   0  0  0  0  0  0  0  0  0  0  0  0
    3.5094   -2.1575    0.3372 C   0  0  0  0  0  0  0  0  0  0  0  0
    2.1815   -1.7591    0.7417 N   0  0  0  0  0  0  0  0  0  0  0  0
    1.4740   -2.4228    1.7197 C   0  0  0  0  0  0  0  0  0  0  0  0
    1.9015   -3.3860    2.3430 O   0  0  0  0  0  0  0  0  0  0  0  0
    0.1088   -1.8588    1.9737 C   0  0  0  0  0  0  0  0  0  0  0  0
   -0.6316   -2.2941    3.0611 C   0  0  0  0  0  0  0  0  0  0  0  0
   -1.8802   -1.7192    3.2708 C   0  0  0  0  0  0  0  0  0  0  0  0
   -2.3443   -0.7307    2.3927 C   0  0  0  0  0  0  0  0  0  0  0  0
   -1.5439   -0.3718    1.3016 C   0  0  0  0  0  0  0  0  0  0  0  0
   -0.3177   -0.9125    1.0886 N   0  0  0  0  0  0  0  0  0  0  0  0
   -2.0040    0.6712    0.2967 C   0  0  0  0  0  0  0  0  0  0  0  0
   -3.3623    1.1730    0.5059 N   0  0  0  0  0  0  0  0  0  0  0  0
   -4.0261    1.9335   -0.4503 C   0  0  0  0  0  0  0  0  0  0  0  0
   -5.0575    2.5558   -0.2102 O   0  0  0  0  0  0  0  0  0  0  0  0
   -3.4582    1.9459   -1.8403 C   0  0  0  0  0  0  0  0  0  0  0  0
   -2.1363    2.3802   -1.9622 F   0  0  0  0  0  0  0  0  0  0  0  0
   -3.8620    0.8522   -2.8058 C   0  0  0  0  0  0  0  0  0  0  0  0
   -4.3314    2.2597   -3.0338 C   0  0  0  0  0  0  0  0  0  0  0  0
   -3.8107    1.2517    1.8903 C   0  0  0  0  0  0  0  0  0  0  0  0
   -3.7019   -0.1097    2.5847 C   0  0  0  0  0  0  0  0  0  0  0  0
    3.9917   -0.8634   -1.7687 C   0  0  0  0  0  0  0  0  0  0  0  0
    4.5775    0.1309   -2.4837 N   0  0  0  0  0  0  0  0  0  0  0  0
    5.7910    3.0220   -2.0844 H   0  0  0  0  0  0  0  0  0  0  0  0
    5.8021    2.0644   -3.5798 H   0  0  0  0  0  0  0  0  0  0  0  0
    7.1761    1.9447   -2.4584 H   0  0  0  0  0  0  0  0  0  0  0  0
    6.3151    1.3853    0.1307 H   0  0  0  0  0  0  0  0  0  0  0  0
    3.4162   -3.0516   -0.2921 H   0  0  0  0  0  0  0  0  0  0  0  0
    4.0866   -2.4473    1.2261 H   0  0  0  0  0  0  0  0  0  0  0  0
    1.7004   -0.9937    0.2728 H   0  0  0  0  0  0  0  0  0  0  0  0
   -0.2429   -3.0533    3.7315 H   0  0  0  0  0  0  0  0  0  0  0  0
   -2.4844   -2.0418    4.1182 H   0  0  0  0  0  0  0  0  0  0  0  0
   -1.9270    0.2401   -0.7098 H   0  0  0  0  0  0  0  0  0  0  0  0
   -1.3266    1.5356    0.3564 H   0  0  0  0  0  0  0  0  0  0  0  0
   -3.0957    0.4548   -3.4613 H   0  0  0  0  0  0  0  0  0  0  0  0
   -4.5881    0.1243   -2.4706 H   0  0  0  0  0  0  0  0  0  0  0  0
   -5.3752    2.4883   -2.8566 H   0  0  0  0  0  0  0  0  0  0  0  0
   -3.8813    2.8287   -3.8441 H   0  0  0  0  0  0  0  0  0  0  0  0
   -3.1818    1.9988    2.3941 H   0  0  0  0  0  0  0  0  0  0  0  0
   -4.8450    1.6059    1.9455 H   0  0  0  0  0  0  0  0  0  0  0  0
   -4.4527   -0.7984    2.1716 H   0  0  0  0  0  0  0  0  0  0  0  0
   -3.9104    0.0186    3.6542 H   0  0  0  0  0  0  0  0  0  0  0  0
    3.3138   -1.4962   -2.3307 H   0  0  0  0  0  0  0  0  0  0  0  0
  1  2  1  0
  2  3  2  0
  3  4  1  0
  4  5  2  0
  5  6  1  0
  6  7  1  0
  7  8  1  0
  8  9  2  0
  8 10  1  0
 10 11  2  0
 11 12  1  0
 12 13  2  0
 13 14  1  0
 14 15  2  0
 14 16  1  0
 16 17  1  0
 17 18  1  0
 18 19  2  0
 18 20  1  0
 20 21  1  0
 20 22  1  0
 22 23  1  0
 17 24  1  0
 24 25  1  0
  5 26  1  0
 26 27  2  0
 27  2  1  0
 15 10  1  0
 25 13  1  0
 23 20  1  0
  1 28  1  0
  1 29  1  0
  1 30  1  0
  3 31  1  0
  6 32  1  0
  6 33  1  0
  7 34  1  0
 11 35  1  0
 12 36  1  0
 16 37  1  0
 16 38  1  0
 22 39  1  0
 22 40  1  0
 23 41  1  0
 23 42  1  0
 24 43  1  0
 24 44  1  0
 25 45  1  0
 25 46  1  0
 26 47  1  0
M  END
$$$$
F1
     RDKit          3D

 69 73  0  0  0  0  0  0  0  0999 V2000
   -3.6836    2.6175   -1.7237 O   0  0  0  0  0  0  0  0  0  0  0  0
   -2.8926    1.7122   -1.4896 C   0  0  0  0  0  0  0  0  0  0  0  0
   -3.1835    0.3699   -1.6095 N   0  0  0  0  0  0  0  0  0  0  0  0
   -4.4971   -0.1442   -1.9437 C   0  0  0  0  0  0  0  0  0  0  0  0
   -5.1739   -0.9279   -0.7672 C   0  0  0  0  0  0  0  0  0  0  0  0
   -5.4158   -0.0046    0.4535 C   0  0  0  0  0  0  0  0  0  0  0  0
   -5.0729   -0.3657    1.7693 C   0  0  0  0  0  0  0  0  0  0  0  0
   -5.3349    0.4835    2.8516 C   0  0  0  0  0  0  0  0  0  0  0  0
   -5.9551    1.7111    2.6464 C   0  0  0  0  0  0  0  0  0  0  0  0
   -6.3156    2.0893    1.3582 C   0  0  0  0  0  0  0  0  0  0  0  0
   -6.0537    1.2409    0.2780 C   0  0  0  0  0  0  0  0  0  0  0  0
   -4.2736   -2.1714   -0.4727 C   0  0  0  0  0  0  0  0  0  0  0  0
   -5.1107   -3.3732   -0.0596 C   0  0  0  0  0  0  0  0  0  0  0  0
   -5.9618   -3.8127   -1.1193 O   0  0  0  0  0  0  0  0  0  0  0  0
   -6.4911   -2.7736   -1.9425 C   0  0  0  0  0  0  0  0  0  0  0  0
   -6.5761   -1.4281   -1.2336 C   0  0  0  0  0  0  0  0  0  0  0  0
   -1.4879    1.9883   -1.0421 C   0  0  0  0  0  0  0  0  0  0  0  0
   -1.0649    3.2935   -0.8516 C   0  0  0  0  0  0  0  0  0  0  0  0
    0.2445    3.5012   -0.4340 C   0  0  0  0  0  0  0  0  0  0  0  0
    1.0855    2.4043   -0.2161 C   0  0  0  0  0  0  0  0  0  0  0  0
    0.5835    1.1179   -0.4520 C   0  0  0  0  0  0  0  0  0  0  0  0
   -0.6944    0.8949   -0.8493 N   0  0  0  0  0  0  0  0  0  0  0  0
    1.4491   -0.1078   -0.2359 C   0  0  0  0  0  0  0  0  0  0  0  0
    2.8700    0.1874   -0.0468 N   0  0  0  0  0  0  0  0  0  0  0  0
    3.7335   -0.9065   -0.1124 C   0  0  0  0  0  0  0  0  0  0  0  0
    3.3421   -2.0640   -0.2362 O   0  0  0  0  0  0  0  0  0  0  0  0
    5.1917   -0.6742   -0.0876 C   0  0  0  0  0  0  0  0  0  0  0  0
    5.7979    0.3456   -0.8227 C   0  0  0  0  0  0  0  0  0  0  0  0
    7.1854    0.4712   -0.7895 C   0  0  0  0  0  0  0  0  0  0  0  0
    7.9139   -0.4381   -0.0361 C   0  0  0  0  0  0  0  0  0  0  0  0
    9.2818   -0.2795   -0.0376 O   0  0  0  0  0  0  0  0  0  0  0  0
    9.9868   -1.2327    0.7733 C   0  0  0  0  0  0  0  0  0  0  0  0
   10.0885   -0.8244    2.2369 C   0  0  0  0  0  0  0  0  0  0  0  0
    8.9024   -0.7738    2.8766 F   0  0  0  0  0  0  0  0  0  0  0  0
   10.6703    0.3939    2.3620 F   0  0  0  0  0  0  0  0  0  0  0  0
   10.8721   -1.7051    2.9116 F   0  0  0  0  0  0  0  0  0  0  0  0
    7.3587   -1.4475    0.6638 N   0  0  0  0  0  0  0  0  0  0  0  0
    6.0065   -1.5518    0.6139 C   0  0  0  0  0  0  0  0  0  0  0  0
    3.1407    1.3523    0.7959 C   0  0  0  0  0  0  0  0  0  0  0  0
    2.5180    2.6139    0.2005 C   0  0  0  0  0  0  0  0  0  0  0  0
   -2.4206   -0.2645   -1.3911 H   0  0  0  0  0  0  0  0  0  0  0  0
   -5.1284    0.6777   -2.2976 H   0  0  0  0  0  0  0  0  0  0  0  0
   -4.3529   -0.8057   -2.8059 H   0  0  0  0  0  0  0  0  0  0  0  0
   -4.6024   -1.3176    1.9972 H   0  0  0  0  0  0  0  0  0  0  0  0
   -5.0574    0.1808    3.8589 H   0  0  0  0  0  0  0  0  0  0  0  0
   -6.1601    2.3690    3.4869 H   0  0  0  0  0  0  0  0  0  0  0  0
   -6.8011    3.0469    1.1869 H   0  0  0  0  0  0  0  0  0  0  0  0
   -6.3547    1.5786   -0.7124 H   0  0  0  0  0  0  0  0  0  0  0  0
   -3.4960   -1.9543    0.2681 H   0  0  0  0  0  0  0  0  0  0  0  0
   -3.7372   -2.4626   -1.3861 H   0  0  0  0  0  0  0  0  0  0  0  0
   -5.7302   -3.1587    0.8187 H   0  0  0  0  0  0  0  0  0  0  0  0
   -4.4584   -4.2134    0.2045 H   0  0  0  0  0  0  0  0  0  0  0  0
   -5.8714   -2.7034   -2.8435 H   0  0  0  0  0  0  0  0  0  0  0  0
   -7.4887   -3.0898   -2.2653 H   0  0  0  0  0  0  0  0  0  0  0  0
   -7.2338   -1.5558   -0.3626 H   0  0  0  0  0  0  0  0  0  0  0  0
   -7.0616   -0.6907   -1.8845 H   0  0  0  0  0  0  0  0  0  0  0  0
   -1.7392    4.1262   -1.0248 H   0  0  0  0  0  0  0  0  0  0  0  0
    0.6041    4.5157   -0.2817 H   0  0  0  0  0  0  0  0  0  0  0  0
    1.3404   -0.7799   -1.0954 H   0  0  0  0  0  0  0  0  0  0  0  0
    1.0937   -0.6363    0.6577 H   0  0  0  0  0  0  0  0  0  0  0  0
    5.2053    1.0224   -1.4306 H   0  0  0  0  0  0  0  0  0  0  0  0
    7.6902    1.2507   -1.3501 H   0  0  0  0  0  0  0  0  0  0  0  0
    9.5962   -2.2525    0.6588 H   0  0  0  0  0  0  0  0  0  0  0  0
   11.0052   -1.2683    0.3661 H   0  0  0  0  0  0  0  0  0  0  0  0
    5.5882   -2.3854    1.1722 H   0  0  0  0  0  0  0  0  0  0  0  0
    2.7084    1.1395    1.7822 H   0  0  0  0  0  0  0  0  0  0  0  0
    4.2095    1.5043    0.9602 H   0  0  0  0  0  0  0  0  0  0  0  0
    3.0894    2.9249   -0.6846 H   0  0  0  0  0  0  0  0  0  0  0  0
    2.5800    3.4205    0.9425 H   0  0  0  0  0  0  0  0  0  0  0  0
  1  2  2  0
  2  3  1  0
  3  4  1  0
  4  5  1  0
  5  6  1  0
  6  7  2  0
  7  8  1  0
  8  9  2  0
  9 10  1  0
 10 11  2  0
  5 12  1  0
 12 13  1  0
 13 14  1  0
 14 15  1  0
 15 16  1  0
  2 17  1  0
 17 18  2  0
 18 19  1  0
 19 20  2  0
 20 21  1  0
 21 22  2  0
 21 23  1  0
 23 24  1  0
 24 25  1  0
 25 26  2  0
 25 27  1  0
 27 28  2  0
 28 29  1  0
 29 30  2  0
 30 31  1  0
 31 32  1  0
 32 33  1  0
 33 34  1  0
 33 35  1  0
 33 36  1  0
 30 37  1  0
 37 38  2  0
 24 39  1  0
 39 40  1  0
 16  5  1  0
 22 17  1  0
 38 27  1  0
 11  6  1  0
 40 20  1  0
  3 41  1  0
  4 42  1  0
  4 43  1  0
  7 44  1  0
  8 45  1  0
  9 46  1  0
 10 47  1  0
 11 48  1  0
 12 49  1  0
 12 50  1  0
 13 51  1  0
 13 52  1  0
 15 53  1  0
 15 54  1  0
 16 55  1  0
 16 56  1  0
 18 57  1  0
 19 58  1  0
 23 59  1  0
 23 60  1  0
 28 61  1  0
 29 62  1  0
 32 63  1  0
 32 64  1  0
 38 65  1  0
 39 66  1  0
 39 67  1  0
 40 68  1  0
 40 69  1  0
M  END
$$$$
F2
     RDKit          3D

 52 55  0  0  0  0  0  0  0  0999 V2000
    5.3094   -2.1052   -2.0450 O   0  0  0  0  0  0  0  0  0  0  0  0
    4.6033   -1.6465   -1.1548 C   0  0  0  0  0  0  0  0  0  0  0  0
    5.0448   -1.3573    0.1162 N   0  0  0  0  0  0  0  0  0  0  0  0
    6.4276   -1.4349    0.5058 C   0  0  0  0  0  0  0  0  0  0  0  0
    6.9552   -0.0403    0.6246 C   0  0  0  0  0  0  0  0  0  0  0  0
    7.4092    0.7512   -0.4837 C   0  0  0  0  0  0  0  0  0  0  0  0
    7.8443    2.0009   -0.1026 C   0  0  0  0  0  0  0  0  0  0  0  0
    7.7090    2.2388    1.5837 S   0  0  0  0  0  0  0  0  0  0  0  0
    7.0715    0.6675    1.8078 C   0  0  0  0  0  0  0  0  0  0  0  0
    3.1525   -1.3415   -1.3809 C   0  0  0  0  0  0  0  0  0  0  0  0
    2.5668   -1.6287   -2.6039 C   0  0  0  0  0  0  0  0  0  0  0  0
    1.2222   -1.3186   -2.7733 C   0  0  0  0  0  0  0  0  0  0  0  0
    0.5110   -0.7252   -1.7257 C   0  0  0  0  0  0  0  0  0  0  0  0
    1.1747   -0.4867   -0.5144 C   0  0  0  0  0  0  0  0  0  0  0  0
    2.4877   -0.7782   -0.3327 N   0  0  0  0  0  0  0  0  0  0  0  0
    0.4550    0.1515    0.6574 C   0  0  0  0  0  0  0  0  0  0  0  0
   -0.9924    0.2830    0.4812 N   0  0  0  0  0  0  0  0  0  0  0  0
   -1.7230    0.5991    1.6253 C   0  0  0  0  0  0  0  0  0  0  0  0
   -1.2116    0.7815    2.7273 O   0  0  0  0  0  0  0  0  0  0  0  0
   -3.1890    0.6940    1.5320 C   0  0  0  0  0  0  0  0  0  0  0  0
   -3.8587    1.8069    2.0355 C   0  0  0  0  0  0  0  0  0  0  0  0
   -5.2477    1.8549    1.9416 C   0  0  0  0  0  0  0  0  0  0  0  0
   -5.9086    0.7837    1.3573 C   0  0  0  0  0  0  0  0  0  0  0  0
   -7.2801    0.8785    1.2761 O   0  0  0  0  0  0  0  0  0  0  0  0
   -7.8982   -0.1739    0.5205 C   0  0  0  0  0  0  0  0  0  0  0  0
   -7.8742    0.0681   -0.9824 C   0  0  0  0  0  0  0  0  0  0  0  0
   -6.6367    0.0508   -1.5185 F   0  0  0  0  0  0  0  0  0  0  0  0
   -8.5986   -0.8850   -1.6202 F   0  0  0  0  0  0  0  0  0  0  0  0
   -8.4363    1.2606   -1.2931 F   0  0  0  0  0  0  0  0  0  0  0  0
   -5.2884   -0.3206    0.8917 N   0  0  0  0  0  0  0  0  0  0  0  0
   -3.9380   -0.3470    1.0012 C   0  0  0  0  0  0  0  0  0  0  0  0
   -1.4197    0.6390   -0.8737 C   0  0  0  0  0  0  0  0  0  0  0  0
   -0.9535   -0.4109   -1.8799 C   0  0  0  0  0  0  0  0  0  0  0  0
    4.3759   -0.8991    0.7285 H   0  0  0  0  0  0  0  0  0  0  0  0
    6.4699   -1.9532    1.4691 H   0  0  0  0  0  0  0  0  0  0  0  0
    7.0086   -2.0106   -0.2216 H   0  0  0  0  0  0  0  0  0  0  0  0
    7.4070    0.4118   -1.5136 H   0  0  0  0  0  0  0  0  0  0  0  0
    8.2324    2.7881   -0.7340 H   0  0  0  0  0  0  0  0  0  0  0  0
    6.8091    0.3372    2.8037 H   0  0  0  0  0  0  0  0  0  0  0  0
    3.1416   -2.0853   -3.4026 H   0  0  0  0  0  0  0  0  0  0  0  0
    0.7354   -1.5406   -3.7201 H   0  0  0  0  0  0  0  0  0  0  0  0
    0.8612    1.1587    0.8130 H   0  0  0  0  0  0  0  0  0  0  0  0
    0.6509   -0.4379    1.5610 H   0  0  0  0  0  0  0  0  0  0  0  0
   -3.3083    2.6239    2.4925 H   0  0  0  0  0  0  0  0  0  0  0  0
   -5.8030    2.7086    2.3148 H   0  0  0  0  0  0  0  0  0  0  0  0
   -7.5037   -1.1632    0.7810 H   0  0  0  0  0  0  0  0  0  0  0  0
   -8.9472   -0.1876    0.8393 H   0  0  0  0  0  0  0  0  0  0  0  0
   -3.4654   -1.2561    0.6393 H   0  0  0  0  0  0  0  0  0  0  0  0
   -2.5013    0.7677   -0.9443 H   0  0  0  0  0  0  0  0  0  0  0  0
   -0.9756    1.6168   -1.1012 H   0  0  0  0  0  0  0  0  0  0  0  0
   -1.5180   -1.3395   -1.7300 H   0  0  0  0  0  0  0  0  0  0  0  0
   -1.1592   -0.0493   -2.8940 H   0  0  0  0  0  0  0  0  0  0  0  0
  1  2  2  0
  2  3  1  0
  3  4  1  0
  4  5  1  0
  5  6  1  0
  6  7  2  0
  7  8  1  0
  8  9  1  0
  2 10  1  0
 10 11  2  0
 11 12  1  0
 12 13  2  0
 13 14  1  0
 14 15  2  0
 14 16  1  0
 16 17  1  0
 17 18  1  0
 18 19  2  0
 18 20  1  0
 20 21  2  0
 21 22  1  0
 22 23  2  0
 23 24  1  0
 24 25  1  0
 25 26  1  0
 26 27  1  0
 26 28  1  0
 26 29  1  0
 23 30  1  0
 30 31  2  0
 17 32  1  0
 32 33  1  0
  9  5  2  0
 15 10  1  0
 31 20  1  0
 33 13  1  0
  3 34  1  0
  4 35  1  0
  4 36  1  0
  6 37  1  0
  7 38  1  0
  9 39  1  0
 11 40  1  0
 12 41  1  0
 16 42  1  0
 16 43  1  0
 21 44  1  0
 22 45  1  0
 25 46  1  0
 25 47  1  0
 31 48  1  0
 32 49  1  0
 32 50  1  0
 33 51  1  0
 33 52  1  0
M  END
$$$$
F3
     RDKit          3D

 55 58  0  0  0  0  0  0  0  0999 V2000
   -5.3523   -2.0411    1.1773 O   0  0  0  0  0  0  0  0  0  0  0  0
   -4.4583   -1.6068    0.4624 C   0  0  0  0  0  0  0  0  0  0  0  0
   -4.6514   -1.1059   -0.8061 N   0  0  0  0  0  0  0  0  0  0  0  0
   -5.9533   -0.9790   -1.4150 C   0  0  0  0  0  0  0  0  0  0  0  0
   -6.4903    0.4296   -1.4233 C   0  0  0  0  0  0  0  0  0  0  0  0
   -5.9350    1.4771   -0.6735 C   0  0  0  0  0  0  0  0  0  0  0  0
   -6.5116    2.7454   -0.7094 C   0  0  0  0  0  0  0  0  0  0  0  0
   -5.9655    3.7369    0.0061 F   0  0  0  0  0  0  0  0  0  0  0  0
   -7.6430    3.0028   -1.4768 C   0  0  0  0  0  0  0  0  0  0  0  0
   -8.2091    1.9724   -2.2234 C   0  0  0  0  0  0  0  0  0  0  0  0
   -7.6336    0.7026   -2.1876 C   0  0  0  0  0  0  0  0  0  0  0  0
   -8.1950   -0.2749   -2.9131 F   0  0  0  0  0  0  0  0  0  0  0  0
   -3.0358   -1.5621    0.9313 C   0  0  0  0  0  0  0  0  0  0  0  0
   -2.7124   -2.0301    2.1956 C   0  0  0  0  0  0  0  0  0  0  0  0
   -1.3878   -1.9436    2.6056 C   0  0  0  0  0  0  0  0  0  0  0  0
   -0.4337   -1.3877    1.7471 C   0  0  0  0  0  0  0  0  0  0  0  0
   -0.8402   -0.9589    0.4757 C   0  0  0  0  0  0  0  0  0  0  0  0
   -2.1313   -1.0280    0.0617 N   0  0  0  0  0  0  0  0  0  0  0  0
    0.1524   -0.3474   -0.4948 C   0  0  0  0  0  0  0  0  0  0  0  0
    1.5512   -0.4271   -0.0689 N   0  0  0  0  0  0  0  0  0  0  0  0
    2.5014   -0.0892   -1.0327 C   0  0  0  0  0  0  0  0  0  0  0  0
    2.2106    0.2725   -2.1705 O   0  0  0  0  0  0  0  0  0  0  0  0
    3.9321   -0.1906   -0.6967 C   0  0  0  0  0  0  0  0  0  0  0  0
    4.4830   -1.3388   -0.1266 C   0  0  0  0  0  0  0  0  0  0  0  0
    5.8491   -1.3663    0.1473 C   0  0  0  0  0  0  0  0  0  0  0  0
    6.6076   -0.2459   -0.1617 C   0  0  0  0  0  0  0  0  0  0  0  0
    7.9504   -0.3079    0.1375 O   0  0  0  0  0  0  0  0  0  0  0  0
    8.6306    0.9503    0.0219 C   0  0  0  0  0  0  0  0  0  0  0  0
    8.4577    1.8419    1.2440 C   0  0  0  0  0  0  0  0  0  0  0  0
    9.1649    2.9884    1.0936 F   0  0  0  0  0  0  0  0  0  0  0  0
    7.1784    2.1918    1.4873 F   0  0  0  0  0  0  0  0  0  0  0  0
    8.9305    1.2324    2.3597 F   0  0  0  0  0  0  0  0  0  0  0  0
    6.1075    0.8627   -0.7452 N   0  0  0  0  0  0  0  0  0  0  0  0
    4.7782    0.8614   -1.0149 C   0  0  0  0  0  0  0  0  0  0  0  0
    1.7702   -0.2476    1.3674 C   0  0  0  0  0  0  0  0  0  0  0  0
    1.0099   -1.3039    2.1653 C   0  0  0  0  0  0  0  0  0  0  0  0
   -3.8285   -0.7502   -1.2845 H   0  0  0  0  0  0  0  0  0  0  0  0
   -5.8415   -1.3326   -2.4454 H   0  0  0  0  0  0  0  0  0  0  0  0
   -6.6663   -1.6317   -0.8987 H   0  0  0  0  0  0  0  0  0  0  0  0
   -5.0579    1.3284   -0.0531 H   0  0  0  0  0  0  0  0  0  0  0  0
   -8.0712    4.0000   -1.4892 H   0  0  0  0  0  0  0  0  0  0  0  0
   -9.0888    2.1480   -2.8347 H   0  0  0  0  0  0  0  0  0  0  0  0
   -3.4739   -2.4465    2.8469 H   0  0  0  0  0  0  0  0  0  0  0  0
   -1.1066   -2.3054    3.5921 H   0  0  0  0  0  0  0  0  0  0  0  0
    0.0510   -0.8397   -1.4693 H   0  0  0  0  0  0  0  0  0  0  0  0
   -0.0941    0.7144   -0.6219 H   0  0  0  0  0  0  0  0  0  0  0  0
    3.8636   -2.2038    0.0917 H   0  0  0  0  0  0  0  0  0  0  0  0
    6.3134   -2.2400    0.5912 H   0  0  0  0  0  0  0  0  0  0  0  0
    9.6955    0.7060   -0.0647 H   0  0  0  0  0  0  0  0  0  0  0  0
    8.3782    1.4773   -0.9064 H   0  0  0  0  0  0  0  0  0  0  0  0
    4.4036    1.7582   -1.5035 H   0  0  0  0  0  0  0  0  0  0  0  0
    2.8298   -0.2762    1.6304 H   0  0  0  0  0  0  0  0  0  0  0  0
    1.4161    0.7605    1.6208 H   0  0  0  0  0  0  0  0  0  0  0  0
    1.4693   -2.2876    2.0067 H   0  0  0  0  0  0  0  0  0  0  0  0
    1.0824   -1.0643    3.2325 H   0  0  0  0  0  0  0  0  0  0  0  0
  1  2  2  0
  2  3  1  0
  3  4  1  0
  4  5  1  0
  5  6  2  0
  6  7  1  0
  7  8  1  0
  7  9  2  0
  9 10  1  0
 10 11  2  0
 11 12  1  0
  2 13  1  0
 13 14  2  0
 14 15  1  0
 15 16  2  0
 16 17  1  0
 17 18  2  0
 17 19  1  0
 19 20  1  0
 20 21  1  0
 21 22  2  0
 21 23  1  0
 23 24  2  0
 24 25  1  0
 25 26  2  0
 26 27  1  0
 27 28  1  0
 28 29  1  0
 29 30  1  0
 29 31  1  0
 29 32  1  0
 26 33  1  0
 33 34  2  0
 20 35  1  0
 35 36  1  0
 11  5  1  0
 18 13  1  0
 34 23  1  0
 36 16  1  0
  3 37  1  0
  4 38  1  0
  4 39  1  0
  6 40  1  0
  9 41  1  0
 10 42  1  0
 14 43  1  0
 15 44  1  0
 19 45  1  0
 19 46  1  0
 24 47  1  0
 25 48  1  0
 28 49  1  0
 28 50  1  0
 34 51  1  0
 35 52  1  0
 35 53  1  0
 36 54  1  0
 36 55  1  0
M  END
$$$$
F4
     RDKit          3D

 61 64  0  0  0  0  0  0  0  0999 V2000
    3.5218    0.9452    3.1804 O   0  0  0  0  0  0  0  0  0  0  0  0
    2.8195    1.0070    2.1777 C   0  0  0  0  0  0  0  0  0  0  0  0
    3.0740    1.8217    1.0969 N   0  0  0  0  0  0  0  0  0  0  0  0
    4.2569    2.6350    0.9817 C   0  0  0  0  0  0  0  0  0  0  0  0
    5.3786    1.9003    0.2892 C   0  0  0  0  0  0  0  0  0  0  0  0
    6.6090    1.7158    0.9406 C   0  0  0  0  0  0  0  0  0  0  0  0
    7.6601    1.0570    0.3014 C   0  0  0  0  0  0  0  0  0  0  0  0
    7.4767    0.5639   -0.9913 C   0  0  0  0  0  0  0  0  0  0  0  0
    8.8156   -0.2767   -1.7963 S   0  0  0  0  0  6  0  0  0  0  0  0
    8.7938   -1.8863   -1.0556 C   0  0  0  0  0  0  0  0  0  0  0  0
   10.0416    0.3889   -1.4025 O   0  0  0  0  0  0  0  0  0  0  0  0
    8.4691   -0.4304   -3.1977 O   0  0  0  0  0  0  0  0  0  0  0  0
    6.2660    0.7494   -1.6624 C   0  0  0  0  0  0  0  0  0  0  0  0
    5.2214    1.4167   -1.0198 C   0  0  0  0  0  0  0  0  0  0  0  0
    1.5778    0.1784    2.0299 C   0  0  0  0  0  0  0  0  0  0  0  0
    1.1875   -0.6805    3.0486 C   0  0  0  0  0  0  0  0  0  0  0  0
    0.0199   -1.4169    2.8749 C   0  0  0  0  0  0  0  0  0  0  0  0
   -0.7168   -1.2603    1.6999 C   0  0  0  0  0  0  0  0  0  0  0  0
   -0.2459   -0.3832    0.7174 C   0  0  0  0  0  0  0  0  0  0  0  0
    0.8926    0.3360    0.8598 N   0  0  0  0  0  0  0  0  0  0  0  0
   -1.0009   -0.2727   -0.5891 C   0  0  0  0  0  0  0  0  0  0  0  0
   -2.4545   -0.4470   -0.4768 N   0  0  0  0  0  0  0  0  0  0  0  0
   -3.2062   -0.0804   -1.5902 C   0  0  0  0  0  0  0  0  0  0  0  0
   -2.6978    0.2452   -2.6609 O   0  0  0  0  0  0  0  0  0  0  0  0
   -4.6772   -0.0739   -1.5111 C   0  0  0  0  0  0  0  0  0  0  0  0
   -5.4302   -0.7054   -2.5000 C   0  0  0  0  0  0  0  0  0  0  0  0
   -6.8205   -0.6447   -2.4347 C   0  0  0  0  0  0  0  0  0  0  0  0
   -7.4020    0.0498   -1.3836 C   0  0  0  0  0  0  0  0  0  0  0  0
   -8.7780    0.0921   -1.3619 O   0  0  0  0  0  0  0  0  0  0  0  0
   -9.3306    0.6045   -0.1405 C   0  0  0  0  0  0  0  0  0  0  0  0
   -9.4001   -0.4374    0.9663 C   0  0  0  0  0  0  0  0  0  0  0  0
  -10.0791    0.0543    2.0325 F   0  0  0  0  0  0  0  0  0  0  0  0
  -10.0668   -1.5409    0.5513 F   0  0  0  0  0  0  0  0  0  0  0  0
   -8.1922   -0.8369    1.4128 F   0  0  0  0  0  0  0  0  0  0  0  0
   -6.7011    0.6946   -0.4281 N   0  0  0  0  0  0  0  0  0  0  0  0
   -5.3495    0.6323   -0.5237 C   0  0  0  0  0  0  0  0  0  0  0  0
   -2.9950   -1.0992    0.7255 C   0  0  0  0  0  0  0  0  0  0  0  0
   -1.9890   -2.0124    1.4345 C   0  0  0  0  0  0  0  0  0  0  0  0
    2.4435    1.7237    0.3072 H   0  0  0  0  0  0  0  0  0  0  0  0
    4.5632    2.9660    1.9811 H   0  0  0  0  0  0  0  0  0  0  0  0
    3.9951    3.5280    0.4031 H   0  0  0  0  0  0  0  0  0  0  0  0
    6.7528    2.0872    1.9537 H   0  0  0  0  0  0  0  0  0  0  0  0
    8.6129    0.9410    0.8145 H   0  0  0  0  0  0  0  0  0  0  0  0
    7.8353   -2.3608   -1.2585 H   0  0  0  0  0  0  0  0  0  0  0  0
    8.9609   -1.7908    0.0201 H   0  0  0  0  0  0  0  0  0  0  0  0
    9.5976   -2.4712   -1.5034 H   0  0  0  0  0  0  0  0  0  0  0  0
    6.1267    0.3869   -2.6783 H   0  0  0  0  0  0  0  0  0  0  0  0
    4.2805    1.5591   -1.5470 H   0  0  0  0  0  0  0  0  0  0  0  0
    1.7767   -0.7705    3.9558 H   0  0  0  0  0  0  0  0  0  0  0  0
   -0.3102   -2.0975    3.6566 H   0  0  0  0  0  0  0  0  0  0  0  0
   -0.7975    0.7004   -1.0500 H   0  0  0  0  0  0  0  0  0  0  0  0
   -0.6310   -1.0481   -1.2703 H   0  0  0  0  0  0  0  0  0  0  0  0
   -4.9397   -1.2275   -3.3176 H   0  0  0  0  0  0  0  0  0  0  0  0
   -7.4360   -1.1232   -3.1883 H   0  0  0  0  0  0  0  0  0  0  0  0
  -10.3573    0.9024   -0.3836 H   0  0  0  0  0  0  0  0  0  0  0  0
   -8.8337    1.5233    0.1920 H   0  0  0  0  0  0  0  0  0  0  0  0
   -4.8143    1.1981    0.2331 H   0  0  0  0  0  0  0  0  0  0  0  0
   -3.2992   -0.2940    1.4053 H   0  0  0  0  0  0  0  0  0  0  0  0
   -3.8879   -1.6752    0.4650 H   0  0  0  0  0  0  0  0  0  0  0  0
   -1.7582   -2.8837    0.8088 H   0  0  0  0  0  0  0  0  0  0  0  0
   -2.4286   -2.3766    2.3708 H   0  0  0  0  0  0  0  0  0  0  0  0
  1  2  2  0
  2  3  1  0
  3  4  1  0
  4  5  1  0
  5  6  2  0
  6  7  1  0
  7  8  2  0
  8  9  1  0
  9 10  1  0
  9 11  2  0
  9 12  2  0
  8 13  1  0
 13 14  2  0
  2 15  1  0
 15 16  2  0
 16 17  1  0
 17 18  2  0
 18 19  1  0
 19 20  2  0
 19 21  1  0
 21 22  1  0
 22 23  1  0
 23 24  2  0
 23 25  1  0
 25 26  2  0
 26 27  1  0
 27 28  2  0
 28 29  1  0
 29 30  1  0
 30 31  1  0
 31 32  1  0
 31 33  1  0
 31 34  1  0
 28 35  1  0
 35 36  2  0
 22 37  1  0
 37 38  1  0
 14  5  1  0
 20 15  1  0
 36 25  1  0
 38 18  1  0
  3 39  1  0
  4 40  1  0
  4 41  1  0
  6 42  1  0
  7 43  1  0
 10 44  1  0
 10 45  1  0
 10 46  1  0
 13 47  1  0
 14 48  1  0
 16 49  1  0
 17 50  1  0
 21 51  1  0
 21 52  1  0
 26 53  1  0
 27 54  1  0
 30 55  1  0
 30 56  1  0
 36 57  1  0
 37 58  1  0
 37 59  1  0
 38 60  1  0
 38 61  1  0
M  END
$$$$
F5
     RDKit          3D

 67 71  0  0  0  0  0  0  0  0999 V2000
   -3.1416   -3.1482    0.1501 O   0  0  0  0  0  0  0  0  0  0  0  0
   -2.3318   -2.3762   -0.3485 C   0  0  0  0  0  0  0  0  0  0  0  0
   -2.5674   -1.6041   -1.4638 N   0  0  0  0  0  0  0  0  0  0  0  0
   -3.8752   -1.4731   -2.0683 C   0  0  0  0  0  0  0  0  0  0  0  0
   -4.5126   -0.1356   -1.7638 C   0  0  0  0  0  0  0  0  0  0  0  0
   -4.0080    1.0284   -2.3317 C   0  0  0  0  0  0  0  0  0  0  0  0
   -4.6074    2.2349   -2.0039 C   0  0  0  0  0  0  0  0  0  0  0  0
   -5.6904    2.2402   -1.1274 C   0  0  0  0  0  0  0  0  0  0  0  0
   -6.1697    1.0423   -0.5988 C   0  0  0  0  0  0  0  0  0  0  0  0
   -7.2359    1.0312    0.2956 N   0  0  0  0  0  0  0  0  0  0  0  0
   -7.5413   -0.2757    0.9036 C   0  0  0  0  0  0  0  0  0  0  0  0
   -8.7118   -0.1153    1.8860 C   0  0  0  0  0  0  0  0  0  0  0  0
   -9.9245    0.3662    1.2806 O   0  0  0  0  0  0  0  0  0  0  0  0
   -9.7032    1.0453    0.0370 C   0  0  0  0  0  0  0  0  0  0  0  0
   -8.4082    1.8750    0.0090 C   0  0  0  0  0  0  0  0  0  0  0  0
   -5.5699   -0.1266   -0.9122 N   0  0  0  0  0  0  0  0  0  0  0  0
   -0.9588   -2.2042    0.2304 C   0  0  0  0  0  0  0  0  0  0  0  0
   -0.5952   -2.9117    1.3657 C   0  0  0  0  0  0  0  0  0  0  0  0
    0.6861   -2.7236    1.8704 C   0  0  0  0  0  0  0  0  0  0  0  0
    1.5585   -1.8353    1.2326 C   0  0  0  0  0  0  0  0  0  0  0  0
    1.1163   -1.1718    0.0793 C   0  0  0  0  0  0  0  0  0  0  0  0
   -0.1344   -1.3343   -0.4226 N   0  0  0  0  0  0  0  0  0  0  0  0
    2.0194   -0.1970   -0.6507 C   0  0  0  0  0  0  0  0  0  0  0  0
    3.4171   -0.2349   -0.2181 N   0  0  0  0  0  0  0  0  0  0  0  0
    4.3325    0.4173   -1.0427 C   0  0  0  0  0  0  0  0  0  0  0  0
    4.0027    1.0560   -2.0387 O   0  0  0  0  0  0  0  0  0  0  0  0
    5.7735    0.3068   -0.7460 C   0  0  0  0  0  0  0  0  0  0  0  0
    6.3755   -0.9070   -0.4114 C   0  0  0  0  0  0  0  0  0  0  0  0
    7.7493   -0.9391   -0.1804 C   0  0  0  0  0  0  0  0  0  0  0  0
    8.4691    0.2401   -0.3069 C   0  0  0  0  0  0  0  0  0  0  0  0
    9.8239    0.1608   -0.0711 O   0  0  0  0  0  0  0  0  0  0  0  0
   10.5016    1.4256   -0.1144 C   0  0  0  0  0  0  0  0  0  0  0  0
   10.4388    2.1873    1.2016 C   0  0  0  0  0  0  0  0  0  0  0  0
   10.9566    1.4489    2.2136 F   0  0  0  0  0  0  0  0  0  0  0  0
   11.1821    3.3190    1.1217 F   0  0  0  0  0  0  0  0  0  0  0  0
    9.1923    2.5524    1.5632 F   0  0  0  0  0  0  0  0  0  0  0  0
    7.9203    1.4207   -0.6583 N   0  0  0  0  0  0  0  0  0  0  0  0
    6.5821    1.4263   -0.8831 C   0  0  0  0  0  0  0  0  0  0  0  0
    3.6032   -0.3656    1.2277 C   0  0  0  0  0  0  0  0  0  0  0  0
    2.9645   -1.6544    1.7412 C   0  0  0  0  0  0  0  0  0  0  0  0
   -1.8220   -0.9647   -1.7231 H   0  0  0  0  0  0  0  0  0  0  0  0
   -4.5299   -2.2841   -1.7308 H   0  0  0  0  0  0  0  0  0  0  0  0
   -3.7484   -1.5775   -3.1513 H   0  0  0  0  0  0  0  0  0  0  0  0
   -3.1597    1.0006   -3.0072 H   0  0  0  0  0  0  0  0  0  0  0  0
   -4.2309    3.1675   -2.4131 H   0  0  0  0  0  0  0  0  0  0  0  0
   -6.1360    3.1865   -0.8415 H   0  0  0  0  0  0  0  0  0  0  0  0
   -7.8191   -1.0012    0.1281 H   0  0  0  0  0  0  0  0  0  0  0  0
   -6.6706   -0.6574    1.4499 H   0  0  0  0  0  0  0  0  0  0  0  0
   -8.9412   -1.0745    2.3612 H   0  0  0  0  0  0  0  0  0  0  0  0
   -8.4441    0.5895    2.6822 H   0  0  0  0  0  0  0  0  0  0  0  0
   -9.6959    0.2943   -0.7620 H   0  0  0  0  0  0  0  0  0  0  0  0
  -10.5668    1.6949   -0.1385 H   0  0  0  0  0  0  0  0  0  0  0  0
   -8.4582    2.6498    0.7828 H   0  0  0  0  0  0  0  0  0  0  0  0
   -8.3438    2.3728   -0.9654 H   0  0  0  0  0  0  0  0  0  0  0  0
   -1.2923   -3.5928    1.8433 H   0  0  0  0  0  0  0  0  0  0  0  0
    0.9990   -3.2721    2.7557 H   0  0  0  0  0  0  0  0  0  0  0  0
    1.9744   -0.4038   -1.7263 H   0  0  0  0  0  0  0  0  0  0  0  0
    1.6466    0.8209   -0.4834 H   0  0  0  0  0  0  0  0  0  0  0  0
    5.7907   -1.8196   -0.3449 H   0  0  0  0  0  0  0  0  0  0  0  0
    8.2508   -1.8636    0.0845 H   0  0  0  0  0  0  0  0  0  0  0  0
   11.5541    1.1902   -0.3120 H   0  0  0  0  0  0  0  0  0  0  0  0
   10.1808    2.0444   -0.9611 H   0  0  0  0  0  0  0  0  0  0  0  0
    6.1680    2.3864   -1.1823 H   0  0  0  0  0  0  0  0  0  0  0  0
    3.1297    0.5106    1.6908 H   0  0  0  0  0  0  0  0  0  0  0  0
    4.6566   -0.3296    1.5135 H   0  0  0  0  0  0  0  0  0  0  0  0
    3.5579   -2.5147    1.4069 H   0  0  0  0  0  0  0  0  0  0  0  0
    2.9721   -1.6438    2.8376 H   0  0  0  0  0  0  0  0  0  0  0  0
  1  2  2  0
  2  3  1  0
  3  4  1  0
  4  5  1  0
  5  6  2  0
  6  7  1  0
  7  8  2  0
  8  9  1  0
  9 10  1  0
 10 11  1  0
 11 12  1  0
 12 13  1  0
 13 14  1  0
 14 15  1  0
  9 16  2  0
  2 17  1  0
 17 18  2  0
 18 19  1  0
 19 20  2  0
 20 21  1  0
 21 22  2  0
 21 23  1  0
 23 24  1  0
 24 25  1  0
 25 26  2  0
 25 27  1  0
 27 28  2  0
 28 29  1  0
 29 30  2  0
 30 31  1  0
 31 32  1  0
 32 33  1  0
 33 34  1  0
 33 35  1  0
 33 36  1  0
 30 37  1  0
 37 38  2  0
 24 39  1  0
 39 40  1  0
 16  5  1  0
 22 17  1  0
 38 27  1  0
 15 10  1  0
 40 20  1  0
  3 41  1  0
  4 42  1  0
  4 43  1  0
  6 44  1  0
  7 45  1  0
  8 46  1  0
 11 47  1  0
 11 48  1  0
 12 49  1  0
 12 50  1  0
 14 51  1  0
 14 52  1  0
 15 53  1  0
 15 54  1  0
 18 55  1  0
 19 56  1  0
 23 57  1  0
 23 58  1  0
 28 59  1  0
 29 60  1  0
 32 61  1  0
 32 62  1  0
 38 63  1  0
 39 64  1  0
 39 65  1  0
 40 66  1  0
 40 67  1  0
M  END
$$$$
