
     RDKit          3D

 49 51  0  0  0  0  0  0  0  0999 V2000
    7.1524    2.5736   -1.2361 C   0  0  0  0  0  0  0  0  0  0  0  0
    6.3671    1.5812   -0.4390 C   0  0  0  0  0  0  0  0  0  0  0  0
    5.6995    1.9693    0.7171 C   0  0  0  0  0  0  0  0  0  0  0  0
    4.9763    1.1119    1.4755 N   0  0  0  0  0  0  0  0  0  0  0  0
    4.9413   -0.1753    1.0392 C   0  0  0  0  0  0  0  0  0  0  0  0
    4.1324   -1.1709    1.8277 C   0  0  0  0  0  0  0  0  0  0  0  0
    2.7858   -1.2985    1.3205 N   0  0  0  0  0  0  0  0  0  0  0  0
    2.4494   -2.1988    0.3352 C   0  0  0  0  0  0  0  0  0  0  0  0
    3.2194   -3.0469   -0.1017 O   0  0  0  0  0  0  0  0  0  0  0  0
    1.0541   -2.0494   -0.1912 C   0  0  0  0  0  0  0  0  0  0  0  0
    0.5874   -2.9175   -1.1658 C   0  0  0  0  0  0  0  0  0  0  0  0
   -0.7093   -2.7377   -1.6325 C   0  0  0  0  0  0  0  0  0  0  0  0
   -1.4908   -1.6964   -1.1211 C   0  0  0  0  0  0  0  0  0  0  0  0
   -0.9485   -0.8749   -0.1256 C   0  0  0  0  0  0  0  0  0  0  0  0
    0.3180   -1.0317    0.3372 N   0  0  0  0  0  0  0  0  0  0  0  0
   -1.7512    0.2651    0.4699 C   0  0  0  0  0  0  0  0  0  0  0  0
   -3.1480    0.3434    0.0302 N   0  0  0  0  0  0  0  0  0  0  0  0
   -3.9642    1.2136    0.7481 C   0  0  0  0  0  0  0  0  0  0  0  0
   -3.5356    1.8209    1.7320 O   0  0  0  0  0  0  0  0  0  0  0  0
   -5.4269    1.3599    0.3164 C   0  0  0  0  0  0  0  0  0  0  0  0
   -6.2004    0.0778    0.6217 C   0  0  0  0  0  0  0  0  0  0  0  0
   -6.0902    2.5418    1.0288 C   0  0  0  0  0  0  0  0  0  0  0  0
   -3.3955   -0.0748   -1.3486 C   0  0  0  0  0  0  0  0  0  0  0  0
   -2.9070   -1.5028   -1.5867 C   0  0  0  0  0  0  0  0  0  0  0  0
    5.5992   -0.5594   -0.1247 C   0  0  0  0  0  0  0  0  0  0  0  0
    6.3257    0.3013   -0.8794 N   0  0  0  0  0  0  0  0  0  0  0  0
    6.4986    3.3757   -1.5922 H   0  0  0  0  0  0  0  0  0  0  0  0
    7.9501    3.0052   -0.6237 H   0  0  0  0  0  0  0  0  0  0  0  0
    7.6123    2.0967   -2.1077 H   0  0  0  0  0  0  0  0  0  0  0  0
    5.7270    2.9942    1.0716 H   0  0  0  0  0  0  0  0  0  0  0  0
    4.6285   -2.1479    1.8305 H   0  0  0  0  0  0  0  0  0  0  0  0
    4.0532   -0.8372    2.8680 H   0  0  0  0  0  0  0  0  0  0  0  0
    2.1165   -0.5548    1.5025 H   0  0  0  0  0  0  0  0  0  0  0  0
    1.2161   -3.7140   -1.5504 H   0  0  0  0  0  0  0  0  0  0  0  0
   -1.1042   -3.4088   -2.3916 H   0  0  0  0  0  0  0  0  0  0  0  0
   -1.2689    1.2106    0.1921 H   0  0  0  0  0  0  0  0  0  0  0  0
   -1.7255    0.1785    1.5627 H   0  0  0  0  0  0  0  0  0  0  0  0
   -5.4616    1.5807   -0.7552 H   0  0  0  0  0  0  0  0  0  0  0  0
   -5.7723   -0.7915    0.1141 H   0  0  0  0  0  0  0  0  0  0  0  0
   -7.2444    0.1688    0.3036 H   0  0  0  0  0  0  0  0  0  0  0  0
   -6.1901   -0.1402    1.6957 H   0  0  0  0  0  0  0  0  0  0  0  0
   -7.1195    2.6776    0.6803 H   0  0  0  0  0  0  0  0  0  0  0  0
   -6.1167    2.3947    2.1143 H   0  0  0  0  0  0  0  0  0  0  0  0
   -5.5430    3.4704    0.8326 H   0  0  0  0  0  0  0  0  0  0  0  0
   -4.4521   -0.0152   -1.6128 H   0  0  0  0  0  0  0  0  0  0  0  0
   -2.8645    0.6325   -1.9984 H   0  0  0  0  0  0  0  0  0  0  0  0
   -3.5451   -2.2066   -1.0381 H   0  0  0  0  0  0  0  0  0  0  0  0
   -2.9904   -1.7336   -2.6550 H   0  0  0  0  0  0  0  0  0  0  0  0
    5.5560   -1.5811   -0.4903 H   0  0  0  0  0  0  0  0  0  0  0  0
  1  2  1  0
  2  3  2  0
  3  4  1  0
  4  5  2  0
  5  6  1  0
  6  7  1  0
  7  8  1  0
  8  9  2  0
  8 10  1  0
 10 11  2  0
 11 12  1  0
 12 13  2  0
 13 14  1  0
 14 15  2  0
 14 16  1  0
 16 17  1  0
 17 18  1  0
 18 19  2  0
 18 20  1  0
 20 21  1  0
 20 22  1  0
 17 23  1  0
 23 24  1  0
  5 25  1  0
 25 26  2  0
 26  2  1  0
 15 10  1  0
 24 13  1  0
  1 27  1  0
  1 28  1  0
  1 29  1  0
  3 30  1  0
  6 31  1  0
  6 32  1  0
  7 33  1  0
 11 34  1  0
 12 35  1  0
 16 36  1  0
 16 37  1  0
 20 38  1  0
 21 39  1  0
 21 40  1  0
 21 41  1  0
 22 42  1  0
 22 43  1  0
 22 44  1  0
 23 45  1  0
 23 46  1  0
 24 47  1  0
 24 48  1  0
 25 49  1  0
M  END
$$$$
